<?xml version="1.0" encoding="utf-8"?>
<additional>

    <!-- Charging Stations at Kohlmarkt, Herrengasse & Schauflergasse-->

    <!--
   <chargingStation chargeDelay="2" chargeInTransit="0" power="200000" efficiency="0.95" endPos="25"
    id="cS_4952858" lane="4952858" startPos="10"/>
   <chargingStation chargeDelay="2" chargeInTransit="1" power="200000" efficiency="0.95"
    endPos="55.76" id="cS_8058876" lane="8058876" startPos="5"/>
   <chargingStation chargeDelay="2" chargeInTransit="1" power="200000" efficiency="0.95"
    endPos="55.76" id="cS_888868304" lane="888868304" startPos="5"/>
      -->
      
    <chargingStation chargeInTransit="1" power="200000" efficiency="0.95" endPos="25" id="cS_4998713#0" lane="4998713#0_0" startPos="10"/>
    <chargingStation chargeInTransit="1" power="200000" efficiency="0.95" endPos="25" id="cS_-364911324" lane="-364911324_0" startPos="10"/>
    <chargingStation chargeInTransit="1" power="200000" efficiency="0.95" endPos="25" id="cS_4998703#0" lane="4998703#0_0" startPos="10"/>
    <parkingArea id="ParkAreaA" lane="4998713#0_0" startPos="10" endPos="25" roadsideCapacity="5" angle="90" length="20"/>
    <parkingArea id="ParkAreaB" lane="-364911324_0" startPos="10" endPos="25" roadsideCapacity="5" angle="90" length="20"/>
    <parkingArea id="ParkAreaC" lane="4998703#0_0" startPos="10" endPos="25" roadsideCapacity="5" angle="90" length="20"/>

</additional>