<?xml version="1.0" encoding="UTF-8"?>
<routes>
    <!-- EV type -->
    <vType id="electric_car" minGap="2.50" maxSpeed="29.06" color="white" accel="1.0" decel="1.0" sigma="0.0" emissionClass="Energy/unknown" mass="1830">
    <param key="has.battery.device" value="true"/>
    <param key="airDragCoefficient" value="0.35"/>       <!-- https://www.evspecifications.com/en/model/e94fa0 -->
    <param key="constantPowerIntake" value="100"/>       <!-- observed summer levels -->
    <param key="frontSurfaceArea" value="2.6"/>          <!-- computed (ht-clearance) * width -->
    <param key="rotatingMass" value="40"/>               <!-- guesstimate, inspired by PHEMlight5 PC_BEV -->
    <param key="device.battery.capacity" value="6000"/> <!-- /2 is in kWh -->
    <param key="maximumPower" value="150000"/>           <!-- website as above -->
    <param key="propulsionEfficiency" value=".98"/>      <!-- guesstimate value providing closest match to observed -->
    <param key="radialDragCoefficient" value="0.1"/>     <!-- as above -->
    <param key="recuperationEfficiency" value=".96"/>    <!-- as above -->
    <param key="rollDragCoefficient" value="0.01"/>      <!-- as above -->
    <param key="stoppingThreshold" value="0.1"/>         <!-- as above -->

    <!-- Stationfinder Device -->
    <param key="has.stationfinder.device" value="true"/>
    <param key="device.stationfinder.needToChargeLevel" value="0.4"/>
    <param key="device.stationfinder.saturatedChargeLevel" value="0.9"/>
    <param key="device.stationfinder.radius" value="1000000"/>
    <param key="device.stationfinder.emptyThreshold" value="0.05"/>
    <param key="device.stationfinder.rescueAction" value="remove"/>
</vType>

    <trip id="veh0" type="electric_car" depart="0.00" departLane="best" from="355985162#3" to="-1257983271"/>
    <trip id="veh1" type="electric_car" depart="0.54" departLane="best" from="1197088574#0" to="1120606329"/>
    <trip id="veh2" type="electric_car" depart="1.07" departLane="best" from="4996489" to="4469957"/>
    <trip id="veh3" type="electric_car" depart="1.61" departLane="best" from="745747365" to="-26786890#0"/>
    <trip id="veh4" type="electric_car" depart="2.14" departLane="best" from="204274839#0" to="1267149665#1"/>
    <trip id="veh5" type="electric_car" depart="2.68" departLane="best" from="10069473" to="271227046#0"/>
    <trip id="veh6" type="electric_car" depart="3.21" departLane="best" from="537978832" to="10142888"/>
    <trip id="veh7" type="electric_car" depart="3.75" departLane="best" from="37677561" to="29072920"/>
    <trip id="veh8" type="electric_car" depart="4.28" departLane="best" from="100910783#0" to="31400524#0"/>
    <trip id="veh9" type="electric_car" depart="4.82" departLane="best" from="554966465#0" to="113296995#1"/>
    <trip id="veh10" type="electric_car" depart="5.35" departLane="best" from="553351327" to="4688457#0"/>
    <trip id="veh11" type="electric_car" depart="5.89" departLane="best" from="13449449#0" to="-5841270#1"/>
    <trip id="veh12" type="electric_car" depart="6.42" departLane="best" from="-8735103#3" to="157687996#1"/>
    <trip id="veh13" type="electric_car" depart="6.96" departLane="best" from="26399545" to="-29068613"/>
    <trip id="veh14" type="electric_car" depart="7.49" departLane="best" from="5889586" to="324276032"/>
    <trip id="veh15" type="electric_car" depart="8.03" departLane="best" from="27220131#0" to="9416721#0"/>
    <trip id="veh16" type="electric_car" depart="8.56" departLane="best" from="162373026#8" to="29250956"/>
    <trip id="veh17" type="electric_car" depart="9.10" departLane="best" departSpeed="max" from="5841234" to="35302218"/>
    <trip id="veh18" type="electric_car" depart="9.63" departLane="best" from="619118398" to="31129303#0"/>
    <trip id="veh19" type="electric_car" depart="10.17" departLane="best" departSpeed="max" from="461577176" to="-158798819"/>
    <trip id="veh20" type="electric_car" depart="10.70" departLane="best" departSpeed="max" from="-25344092" to="1160732467#1"/>
    <trip id="veh21" type="electric_car" depart="11.24" departLane="best" departSpeed="max" from="-28166124#1" to="1275100847"/>
    <trip id="veh22" type="electric_car" depart="11.77" departLane="best" from="354021083" to="181550803#9"/>
    <trip id="veh23" type="electric_car" depart="12.31" departLane="best" departSpeed="max" from="156379825" to="1055459613"/>
    <trip id="veh24" type="electric_car" depart="12.84" departLane="best" from="-148101977#2" to="815158042"/>
    <trip id="veh25" type="electric_car" depart="13.38" departLane="best" from="37519305#2" to="33873786#0"/>
    <trip id="veh26" type="electric_car" depart="13.91" departLane="best" departSpeed="max" from="-5838255" to="4997667#3"/>
    <trip id="veh27" type="electric_car" depart="14.45" departLane="best" from="-538990330#4" to="19682625"/>
    <trip id="veh28" type="electric_car" depart="14.98" departLane="best" from="9797746#0" to="-200671385"/>
    <trip id="veh29" type="electric_car" depart="15.52" departLane="best" from="28798326#0" to="4583411#11"/>
    <trip id="veh30" type="electric_car" depart="16.05" departLane="best" from="5887623#0" to="539014528#3"/>
    <trip id="veh31" type="electric_car" depart="16.59" departLane="best" from="1029057330#0" to="-1287588677"/>
    <trip id="veh33" type="electric_car" depart="17.66" departLane="best" from="-9702481#3" to="819702822#0"/>
    <trip id="veh34" type="electric_car" depart="18.19" departLane="best" from="679596246#0" to="142527750#0"/>
    <trip id="veh35" type="electric_car" depart="18.73" departLane="best" from="38176728#0" to="224762051#0"/>
    <trip id="veh36" type="electric_car" depart="19.26" departLane="best" from="8052736" to="25498423#0"/>
    <trip id="veh37" type="electric_car" depart="19.80" departLane="best" from="29065085" to="1239977334#0"/>
    <trip id="veh38" type="electric_car" depart="20.33" departLane="best" from="298784841#0" to="8024174#2"/>
    <trip id="veh39" type="electric_car" depart="20.87" departLane="best" departSpeed="max" from="182562252" to="1100930409#0"/>
    <trip id="veh40" type="electric_car" depart="21.40" departLane="best" from="990543582#4" to="272672834#0"/>
    <trip id="veh41" type="electric_car" depart="21.94" departLane="best" departSpeed="max" from="-26158600" to="161338597#2"/>
    <trip id="veh42" type="electric_car" depart="22.47" departLane="best" departSpeed="max" from="-29100938" to="363273685"/>
    <trip id="veh43" type="electric_car" depart="23.01" departLane="best" from="539014528#1" to="234121941#1"/>
    <trip id="veh44" type="electric_car" depart="23.54" departLane="best" from="-206648074#0" to="199204972#9"/>
    <trip id="veh45" type="electric_car" depart="24.08" departLane="best" departSpeed="max" from="9870098" to="286621397#0"/>
    <trip id="veh46" type="electric_car" depart="24.61" departLane="best" from="9292382" to="665441191#0"/>
    <trip id="veh47" type="electric_car" depart="25.15" departLane="best" from="11384861#3" to="4986580#2"/>
    <trip id="veh48" type="electric_car" depart="25.68" departLane="best" from="442667299#0" to="29052198"/>
    <trip id="veh49" type="electric_car" depart="26.22" departLane="best" from="-1167092518" to="378750516"/>
    <trip id="veh50" type="electric_car" depart="26.75" departLane="best" departSpeed="max" from="-29537954" to="239913339#1"/>
    <trip id="veh51" type="electric_car" depart="27.29" departLane="best" departSpeed="max" from="234005048" to="8677651#0"/>
    <trip id="veh52" type="electric_car" depart="27.82" departLane="best" departSpeed="max" from="6791754" to="124053429"/>
    <trip id="veh53" type="electric_car" depart="28.36" departLane="best" from="26158104" to="-8735103#4"/>
    <trip id="veh54" type="electric_car" depart="28.89" departLane="best" from="8044071" to="689493209#4"/>
    <trip id="veh55" type="electric_car" depart="29.43" departLane="best" from="12620430" to="378265326"/>
    <trip id="veh56" type="electric_car" depart="29.96" departLane="best" from="31400524#0" to="-576332937#1"/>
    <trip id="veh57" type="electric_car" depart="30.50" departLane="best" from="5020114#1" to="29065850"/>
    <trip id="veh58" type="electric_car" depart="31.03" departLane="best" from="530323284#0" to="287544803"/>
    <trip id="veh59" type="electric_car" depart="31.57" departLane="best" departSpeed="max" from="-10069377" to="1024592785"/>
    <trip id="veh61" type="electric_car" depart="32.64" departLane="best" from="680874627#0" to="5889573#4"/>
    <trip id="veh62" type="electric_car" depart="33.17" departLane="best" from="127240496#0" to="-192797122"/>
    <trip id="veh63" type="electric_car" depart="33.71" departLane="best" from="680610501#0" to="-826365396#1"/>
    <trip id="veh64" type="electric_car" depart="34.24" departLane="best" departSpeed="max" from="-25783834#2" to="26653791"/>
    <trip id="veh65" type="electric_car" depart="34.78" departLane="best" departSpeed="max" from="-22923803" to="52296261#0"/>
    <trip id="veh66" type="electric_car" depart="35.31" departLane="best" from="502918368" to="-436724659#1"/>
    <trip id="veh67" type="electric_car" depart="35.85" departLane="best" from="244939265#0" to="29100938"/>
    <trip id="veh68" type="electric_car" depart="36.38" departLane="best" departSpeed="max" from="1165605959" to="9704326"/>
    <trip id="veh69" type="electric_car" depart="36.92" departLane="best" from="206135576" to="-13430470#2"/>
    <trip id="veh70" type="electric_car" depart="37.45" departLane="best" from="27322466#1" to="4997683"/>
    <trip id="veh71" type="electric_car" depart="37.99" departLane="best" from="825952899" to="140400523#3"/>
    <trip id="veh72" type="electric_car" depart="38.52" departLane="best" from="9866312" to="385800228#0"/>
    <trip id="veh73" type="electric_car" depart="39.06" departLane="best" from="228873875#0" to="27950571"/>
    <trip id="veh74" type="electric_car" depart="39.59" departLane="best" departSpeed="max" from="-315639227" to="112630084#3"/>
    <trip id="veh75" type="electric_car" depart="40.13" departLane="best" from="13431697#0" to="31358415"/>
    <trip id="veh76" type="electric_car" depart="40.66" departLane="best" departSpeed="max" from="103273744" to="1104158312#1"/>
    <trip id="veh77" type="electric_car" depart="41.20" departLane="best" from="230626522" to="36875789#1"/>
    <trip id="veh78" type="electric_car" depart="41.73" departLane="best" from="10276713#0" to="8041139#1"/>
    <trip id="veh79" type="electric_car" depart="42.27" departLane="best" from="594729823" to="-242151964"/>
    <trip id="veh80" type="electric_car" depart="42.80" departLane="best" from="1055459613" to="43981491"/>
    <trip id="veh81" type="electric_car" depart="43.34" departLane="best" from="-9826768" to="-4583355#3"/>
    <trip id="veh82" type="electric_car" depart="43.87" departLane="best" from="813356903" to="30285485"/>
    <trip id="veh83" type="electric_car" depart="44.41" departLane="best" from="24412287#2" to="553127698#0"/>
    <trip id="veh84" type="electric_car" depart="44.94" departLane="best" from="554341214#0" to="100664197"/>
    <trip id="veh85" type="electric_car" depart="45.48" departLane="best" departSpeed="max" from="-269993590#1" to="237950588"/>
    <trip id="veh86" type="electric_car" depart="46.01" departLane="best" from="-206648074#1" to="25783834#0"/>
    <trip id="veh87" type="electric_car" depart="46.55" departLane="best" from="4950565#1" to="4433838#1"/>
    <trip id="veh88" type="electric_car" depart="47.08" departLane="best" from="-9702468#2" to="29075876"/>
    <trip id="veh89" type="electric_car" depart="47.62" departLane="best" from="185849940" to="162223971#0"/>
    <trip id="veh90" type="electric_car" depart="48.15" departLane="best" from="619118398" to="-12276040#1"/>
    <trip id="veh91" type="electric_car" depart="48.69" departLane="best" from="-8041183#3" to="36560413#0"/>
    <trip id="veh92" type="electric_car" depart="49.22" departLane="best" from="204274839#0" to="1275252115#1"/>
    <trip id="veh93" type="electric_car" depart="49.76" departLane="best" from="1104158312#0" to="8090058"/>
    <trip id="veh94" type="electric_car" depart="50.29" departLane="best" departSpeed="max" from="230381498#0" to="665441192#0"/>
    <trip id="veh96" type="electric_car" depart="51.36" departLane="best" from="992808574" to="5891892"/>
    <trip id="veh97" type="electric_car" depart="51.90" departLane="best" from="9226260" to="8096326#2"/>
    <trip id="veh98" type="electric_car" depart="52.43" departLane="best" from="5889605#0" to="-802015799"/>
    <trip id="veh99" type="electric_car" depart="52.97" departLane="best" from="-251669260" to="1069605423"/>
    <trip id="veh100" type="electric_car" depart="53.50" departLane="best" from="183616289" to="196461771#2"/>
    <trip id="veh101" type="electric_car" depart="54.04" departLane="best" from="162373026#9" to="972115138#0"/>
    <trip id="veh102" type="electric_car" depart="54.57" departLane="best" from="1165605995#0" to="553127696"/>
    <trip id="veh103" type="electric_car" depart="55.11" departLane="best" from="234121937#4" to="234121946#4"/>
    <trip id="veh104" type="electric_car" depart="55.64" departLane="best" from="8735103#4" to="9867424"/>
    <trip id="veh105" type="electric_car" depart="56.18" departLane="best" from="286653491#0" to="4952872#1"/>
    <trip id="veh106" type="electric_car" depart="56.71" departLane="best" from="-497922603" to="1324975135"/>
    <trip id="veh107" type="electric_car" depart="57.25" departLane="best" from="91929235" to="311974401#0"/>
    <trip id="veh108" type="electric_car" depart="57.78" departLane="best" departSpeed="max" from="27567781#0" to="5020147"/>
    <trip id="veh109" type="electric_car" depart="58.32" departLane="best" departSpeed="max" from="-185242442" to="31275229#9"/>
    <trip id="veh110" type="electric_car" depart="58.85" departLane="best" from="26242729#5" to="636416860#0"/>
    <trip id="veh111" type="electric_car" depart="59.39" departLane="best" departSpeed="max" from="-4998704" to="898564143"/>
    <trip id="veh112" type="electric_car" depart="59.92" departLane="best" departSpeed="max" from="-25344092" to="9702468#2"/>
    <trip id="veh113" type="electric_car" depart="60.46" departLane="best" from="30692804#0" to="444330549"/>
    <trip id="veh114" type="electric_car" depart="60.99" departLane="best" from="104787735#0" to="37729818"/>
    <trip id="veh115" type="electric_car" depart="61.53" departLane="best" from="73227422" to="1201816143"/>
    <trip id="veh116" type="electric_car" depart="62.06" departLane="best" from="30586922" to="353272645#0"/>
    <trip id="veh117" type="electric_car" depart="62.60" departLane="best" from="200823730" to="31275229#6"/>
    <trip id="veh118" type="electric_car" depart="63.13" departLane="best" from="268591387#2" to="-814067692#1"/>
    <trip id="veh119" type="electric_car" depart="63.67" departLane="best" from="-84789879" to="4950565#0"/>
    <trip id="veh120" type="electric_car" depart="64.20" departLane="best" from="105771178#0" to="225488658"/>
    <trip id="veh121" type="electric_car" depart="64.74" departLane="best" from="41711012#2" to="1339194388"/>
    <trip id="veh122" type="electric_car" depart="65.27" departLane="best" from="1290087020" to="504594090#0"/>
    <trip id="veh123" type="electric_car" depart="65.81" departLane="best" departSpeed="max" from="-233609818" to="25428043#1"/>
    <trip id="veh124" type="electric_car" depart="66.34" departLane="best" from="992066308" to="990543581"/>
    <trip id="veh125" type="electric_car" depart="66.88" departLane="best" from="23712060" to="106806628#0"/>
    <trip id="veh126" type="electric_car" depart="67.41" departLane="best" from="1165605995#0" to="813507908#0"/>
    <trip id="veh127" type="electric_car" depart="67.95" departLane="best" from="685002904" to="710615901"/>
    <trip id="veh128" type="electric_car" depart="68.48" departLane="best" from="554113861#0" to="-5889616#1"/>
    <trip id="veh130" type="electric_car" depart="69.55" departLane="best" departSpeed="max" from="31512439#0" to="977070593#0"/>
    <trip id="veh131" type="electric_car" depart="70.09" departLane="best" from="-38148390#0" to="-1120601772"/>
    <trip id="veh132" type="electric_car" depart="70.62" departLane="best" from="576332930#2" to="1334861309#0"/>
    <trip id="veh134" type="electric_car" depart="71.69" departLane="best" departSpeed="max" from="-375939521" to="-35284028"/>
    <trip id="veh135" type="electric_car" depart="72.23" departLane="best" departSpeed="max" from="-29065101" to="29275407#0"/>
    <trip id="veh136" type="electric_car" depart="72.76" departLane="best" departSpeed="max" from="1186664912" to="324276033"/>
    <trip id="veh137" type="electric_car" depart="73.30" departLane="best" from="4788797" to="10276713#0"/>
    <trip id="veh138" type="electric_car" depart="73.83" departLane="best" from="35302219#0" to="1244545625"/>
    <trip id="veh139" type="electric_car" depart="74.37" departLane="best" from="25498423#1" to="8041139#0"/>
    <trip id="veh140" type="electric_car" depart="74.90" departLane="best" from="5889573#1" to="-28080755#0"/>
    <trip id="veh141" type="electric_car" depart="75.44" departLane="best" from="-206648074#1" to="-8052922#0"/>
    <trip id="veh142" type="electric_car" depart="75.97" departLane="best" from="-1040571023" to="538990329#0"/>
    <trip id="veh143" type="electric_car" depart="76.51" departLane="best" from="355120253#2" to="1237047635"/>
    <trip id="veh144" type="electric_car" depart="77.04" departLane="best" from="4997564" to="29234733"/>
    <trip id="veh145" type="electric_car" depart="77.58" departLane="best" from="218080891#0" to="-11384853"/>
    <trip id="veh146" type="electric_car" depart="78.11" departLane="best" from="-242151964" to="73212111#0"/>
    <trip id="veh147" type="electric_car" depart="78.65" departLane="best" from="80202180#0" to="29074985#2"/>
    <trip id="veh148" type="electric_car" depart="79.18" departLane="best" departSpeed="max" from="5843713" to="31275224"/>
    <trip id="veh149" type="electric_car" depart="79.72" departLane="best" from="-4583618#6" to="-4279826#2"/>
    <trip id="veh150" type="electric_car" depart="80.25" departLane="best" from="-1272605236" to="8024245"/>
    <trip id="veh151" type="electric_car" depart="80.79" departLane="best" from="545289762#0" to="665441191#0"/>
    <trip id="veh152" type="electric_car" depart="81.32" departLane="best" from="7835647#0" to="105590996"/>
    <trip id="veh153" type="electric_car" depart="81.86" departLane="best" from="1101544494" to="-30321483#1"/>
    <trip id="veh154" type="electric_car" depart="82.39" departLane="best" from="535343186#1" to="73261335#0"/>
    <trip id="veh155" type="electric_car" depart="82.93" departLane="best" from="192299102#1" to="354021083"/>
    <trip id="veh156" type="electric_car" depart="83.46" departLane="best" from="497922598" to="8113590#0"/>
    <trip id="veh157" type="electric_car" depart="84.00" departLane="best" from="356347988" to="96058967#4"/>
    <trip id="veh158" type="electric_car" depart="84.53" departLane="best" from="556853617" to="7195171"/>
    <trip id="veh159" type="electric_car" depart="85.07" departLane="best" from="-126555254#1" to="5000244#1"/>
    <trip id="veh160" type="electric_car" depart="85.60" departLane="best" from="1331409153" to="813057438#1"/>
    <trip id="veh161" type="electric_car" depart="86.14" departLane="best" from="553193725" to="674746085#8"/>
    <trip id="veh162" type="electric_car" depart="86.67" departLane="best" from="556853617" to="12583891#3"/>
    <trip id="veh163" type="electric_car" depart="87.21" departLane="best" from="538373519" to="-31512776"/>
    <trip id="veh164" type="electric_car" depart="87.74" departLane="best" from="665441191#2" to="663264752"/>
    <trip id="veh165" type="electric_car" depart="88.28" departLane="best" from="10126619" to="5841278"/>
    <trip id="veh166" type="electric_car" depart="88.81" departLane="best" departSpeed="max" from="23713388" to="13442610"/>
    <trip id="veh167" type="electric_car" depart="89.35" departLane="best" from="544406634" to="-1101808935"/>
    <trip id="veh168" type="electric_car" depart="89.88" departLane="best" from="124875749" to="10070361#1"/>
    <trip id="veh169" type="electric_car" depart="90.42" departLane="best" from="1320812005#0" to="428784485"/>
    <trip id="veh170" type="electric_car" depart="90.95" departLane="best" from="909507673#0" to="1278481220"/>
    <trip id="veh171" type="electric_car" depart="91.49" departLane="best" from="-363025535#0" to="228861213#0"/>
    <trip id="veh172" type="electric_car" depart="92.02" departLane="best" from="9654394" to="29048900"/>
    <trip id="veh173" type="electric_car" depart="92.56" departLane="best" from="815158040#0" to="-349688240"/>
    <trip id="veh174" type="electric_car" depart="93.09" departLane="best" from="9288344#1" to="8735103#0"/>
    <trip id="veh175" type="electric_car" depart="93.63" departLane="best" from="898564143" to="124875756#0"/>
    <trip id="veh176" type="electric_car" depart="94.16" departLane="best" from="-29074985#2" to="23985404#1"/>
    <trip id="veh177" type="electric_car" depart="94.70" departLane="best" from="4950558#2" to="142244827#0"/>
    <trip id="veh178" type="electric_car" depart="95.23" departLane="best" from="31275231#0" to="27355895#0"/>
    <trip id="veh179" type="electric_car" depart="95.77" departLane="best" from="171923860#0" to="308095208#1"/>
    <trip id="veh180" type="electric_car" depart="96.30" departLane="best" from="1122299069#0" to="482008862"/>
    <trip id="veh182" type="electric_car" depart="97.37" departLane="best" from="4997582#1" to="4408141#0"/>
    <trip id="veh183" type="electric_car" depart="97.91" departLane="best" departSpeed="max" from="153592371" to="23712060"/>
    <trip id="veh184" type="electric_car" depart="98.44" departLane="best" from="391813231#0" to="15243450#2"/>
    <trip id="veh185" type="electric_car" depart="98.98" departLane="best" from="1287222801#1" to="596810122#0"/>
    <trip id="veh186" type="electric_car" depart="99.51" departLane="best" departSpeed="max" from="4789272#0" to="1339194388"/>
    <trip id="veh187" type="electric_car" depart="100.05" departLane="best" from="1275100847" to="22923803"/>
    <trip id="veh188" type="electric_car" depart="100.58" departLane="best" from="184637567" to="1323442875"/>
    <trip id="veh189" type="electric_car" depart="101.12" departLane="best" departSpeed="max" from="-34411652" to="23395154"/>
    <trip id="veh190" type="electric_car" depart="101.65" departLane="best" from="815158049#0" to="4469959#2"/>
    <trip id="veh191" type="electric_car" depart="102.19" departLane="best" from="7996090#1" to="34909770#1"/>
    <trip id="veh193" type="electric_car" depart="103.26" departLane="best" departSpeed="max" from="-10069377" to="1307279751"/>
    <trip id="veh194" type="electric_car" depart="103.79" departLane="best" from="224762049#0" to="31247388#0"/>
    <trip id="veh195" type="electric_car" depart="104.33" departLane="best" from="38148842#0" to="256959925#1"/>
    <trip id="veh196" type="electric_car" depart="104.86" departLane="best" from="-229784427#1" to="1069605423"/>
    <trip id="veh197" type="electric_car" depart="105.40" departLane="best" from="244935574#0" to="8024485"/>
    <trip id="veh198" type="electric_car" depart="105.93" departLane="best" from="545289762#0" to="-8068039#2"/>
    <trip id="veh199" type="electric_car" depart="106.47" departLane="best" from="4788797" to="277887334#0"/>
    <trip id="veh200" type="electric_car" depart="107.00" departLane="best" departSpeed="max" from="35284028" to="155492878#0"/>
    <trip id="veh201" type="electric_car" depart="107.54" departLane="best" from="-576889183#7" to="5043380"/>
    <trip id="veh202" type="electric_car" depart="108.07" departLane="best" from="420290632#0" to="112630084#0"/>
    <trip id="veh203" type="electric_car" depart="108.61" departLane="best" departSpeed="max" from="-81813058" to="-12527195#0"/>
    <trip id="veh204" type="electric_car" depart="109.14" departLane="best" from="1081704239" to="261704728#1"/>
    <trip id="veh205" type="electric_car" depart="109.68" departLane="best" departSpeed="max" from="5889616#0" to="-24662761#1"/>
    <trip id="veh206" type="electric_car" depart="110.21" departLane="best" departSpeed="max" from="199204972#0" to="36561888#2"/>
    <trip id="veh207" type="electric_car" depart="110.75" departLane="best" departSpeed="max" from="-8072657" to="46738176#0"/>
    <trip id="veh208" type="electric_car" depart="111.28" departLane="best" departSpeed="max" from="25783961" to="1189405401"/>
    <trip id="veh209" type="electric_car" depart="111.82" departLane="best" departSpeed="max" from="38176761" to="-106835614#3"/>
    <trip id="veh210" type="electric_car" depart="112.35" departLane="best" from="5000246#3" to="538022091#0"/>
    <trip id="veh211" type="electric_car" depart="112.89" departLane="best" departSpeed="max" from="-29048900" to="236757554"/>
    <trip id="veh212" type="electric_car" depart="113.42" departLane="best" departSpeed="max" from="-5891895#1" to="8885241#0"/>
    <trip id="veh213" type="electric_car" depart="113.96" departLane="best" from="26739449#2" to="-172323012"/>
    <trip id="veh214" type="electric_car" depart="114.49" departLane="best" departSpeed="max" from="1099801927" to="605745357#0"/>
    <trip id="veh215" type="electric_car" depart="115.03" departLane="best" from="23481795" to="576332930#2"/>
    <trip id="veh216" type="electric_car" depart="115.56" departLane="best" from="39890135#0" to="977070593#3"/>
    <trip id="veh217" type="electric_car" depart="116.10" departLane="best" departSpeed="max" from="307641760" to="-846310656#1"/>
    <trip id="veh218" type="electric_car" depart="116.63" departLane="best" from="736945518#0" to="34411652"/>
    <trip id="veh219" type="electric_car" depart="117.17" departLane="best" from="4789261#3" to="270940088#0"/>
    <trip id="veh220" type="electric_car" depart="117.70" departLane="best" from="228873875#0" to="29076749#0"/>
    <trip id="veh221" type="electric_car" depart="118.24" departLane="best" from="781912456" to="5010645#2"/>
    <trip id="veh222" type="electric_car" depart="118.77" departLane="best" from="244939264#0" to="12264122"/>
    <trip id="veh223" type="electric_car" depart="119.31" departLane="best" from="109561733#0" to="378265326"/>
    <trip id="veh224" type="electric_car" depart="119.84" departLane="best" from="502918368" to="28097053#0"/>
    <trip id="veh225" type="electric_car" depart="120.38" departLane="best" from="341757217#0" to="127061653#0"/>
    <trip id="veh226" type="electric_car" depart="120.91" departLane="best" from="-24867720" to="1299141462"/>
    <trip id="veh227" type="electric_car" depart="121.45" departLane="best" from="1184986412#1" to="146982075#0"/>
    <trip id="veh228" type="electric_car" depart="121.98" departLane="best" from="27408170#0" to="-4931320"/>
    <trip id="veh229" type="electric_car" depart="122.52" departLane="best" from="103802758#0" to="45869320#0"/>
    <trip id="veh230" type="electric_car" depart="123.05" departLane="best" from="46738173#1" to="-219442433#2"/>
    <trip id="veh231" type="electric_car" depart="123.59" departLane="best" departSpeed="max" from="192653296#0" to="29072447"/>
    <trip id="veh232" type="electric_car" depart="124.12" departLane="best" from="199204972#10" to="10420666"/>
    <trip id="veh233" type="electric_car" depart="124.66" departLane="best" from="201856397" to="8041130#0"/>
    <trip id="veh234" type="electric_car" depart="125.19" departLane="best" from="298781349#0" to="46738173#4"/>
    <trip id="veh235" type="electric_car" depart="125.73" departLane="best" from="591889037#0" to="537176985#0"/>
    <trip id="veh236" type="electric_car" depart="126.26" departLane="best" departSpeed="max" from="164578773#0" to="-1071697092"/>
    <trip id="veh237" type="electric_car" depart="126.80" departLane="best" from="146683495#1" to="5095758#0"/>
    <trip id="veh238" type="electric_car" depart="127.33" departLane="best" from="5893450#0" to="8677635#0"/>
    <trip id="veh239" type="electric_car" depart="127.87" departLane="best" from="200689828#1" to="-5011944#4"/>
    <trip id="veh240" type="electric_car" depart="128.40" departLane="best" from="27813933#0" to="324276023"/>
    <trip id="veh241" type="electric_car" depart="128.94" departLane="best" from="100911330#0" to="1100930409#0"/>
    <trip id="veh242" type="electric_car" depart="129.47" departLane="best" from="228861789#0" to="-1267149596#0"/>
    <trip id="veh243" type="electric_car" depart="130.01" departLane="best" from="13413999#1" to="4474216#2"/>
    <trip id="veh244" type="electric_car" depart="130.54" departLane="best" from="190494840" to="76444609#0"/>
    <trip id="veh245" type="electric_car" depart="131.08" departLane="best" from="24030225#0" to="-4279826#2"/>
    <trip id="veh247" type="electric_car" depart="132.15" departLane="best" from="172986927" to="30062299#0"/>
    <trip id="veh248" type="electric_car" depart="132.68" departLane="best" from="-127061645#2" to="38148298#0"/>
    <trip id="veh249" type="electric_car" depart="133.22" departLane="best" departSpeed="max" from="-38148390#1" to="25521683"/>
    <trip id="veh250" type="electric_car" depart="133.75" departLane="best" departSpeed="max" from="-172206111" to="19682625"/>
    <trip id="veh251" type="electric_car" depart="134.29" departLane="best" departSpeed="max" from="-9717217" to="148491888#0"/>
    <trip id="veh252" type="electric_car" depart="134.82" departLane="best" from="5010794#0" to="19682625"/>
    <trip id="veh253" type="electric_car" depart="135.36" departLane="best" from="5003712" to="145428360#1"/>
    <trip id="veh254" type="electric_car" depart="135.89" departLane="best" from="111604772#1" to="-26399545"/>