<?xml version="1.0" encoding="UTF-8"?>
<routes>
    <!-- EV type -->
    <vType id="electric_car" vClass="passenger" maxSpeed="27" accel="2.6" decel="4.5"
        length="4.5" minGap="2.5" sigma="0.5" guiShape="passenger"
        energyCapacity="50" efficiency="0.9" chargingEfficiency="0.95">
        <param key="has.battery.device" value="true" />
        <param key="device.battery.energyStored" value="50" />
        <param key="electric.vehicle" value="true" />
        <param key="electricity.maximumBatteryCapacity" value="50" />
        <param key="electricity.energyConsumedPerMeter" value="0.2" />
    </vType>

    <route id="route1" edges="4998703#0 4998703#1"/>

    <vehicle id="EV_1" type="electric_car" route="route1" depart="0" />
</routes>

    