<?xml version="1.0" encoding="UTF-8"?>

<!-- generated on 2025-02-03 13:02:10 by Eclipse SUMO netconvert Version v1_21_0+2163-fe398d3a3bc
<netconvertConfiguration xmlns:xsi="http://www.w3.org/2001/XMLSchema-instance" xsi:noNamespaceSchemaLocation="http://sumo.dlr.de/xsd/netconvertConfiguration.xsd">

    <input>
        <type-files value="${SUMO_HOME}/data/typemap/osmNetconvert.typ.xml"/>
        <osm-files value="osm_bbox.osm.xml.gz"/>
    </input>

    <output>
        <output-file value="osm.net.xml.gz"/>
        <output.street-names value="true"/>
        <output.original-names value="true"/>
    </output>

    <projection>
        <proj.utm value="true"/>
    </projection>

    <processing>
        <geometry.remove value="true"/>
        <roundabouts.guess value="true"/>
    </processing>

    <tls_building>
        <tls.discard-simple value="true"/>
        <tls.join value="true"/>
        <tls.guess-signals value="true"/>
        <tls.default-type value="actuated"/>
    </tls_building>

    <ramp_guessing>
        <ramps.guess value="true"/>
    </ramp_guessing>

    <edge_removal>
        <keep-edges.by-vclass value="passenger"/>
    </edge_removal>

    <junctions>
        <junctions.join value="true"/>
        <junctions.corner-detail value="5"/>
    </junctions>

</netconvertConfiguration>
-->

<net version="1.20" junctionCornerDetail="5" limitTurnSpeed="5.50" xmlns:xsi="http://www.w3.org/2001/XMLSchema-instance" xsi:noNamespaceSchemaLocation="http://sumo.dlr.de/xsd/net_file.xsd">

    <location netOffset="-601180.69,-5339778.76" convBoundary="0.00,0.00,1279.21,1184.03" origBoundary="16.361930,48.203066,16.379112,48.213643" projParameter="+proj=utm +zone=33 +ellps=WGS84 +datum=WGS84 +units=m +no_defs"/>

    <type id="highway.living_street" priority="2" numLanes="1" speed="2.78" disallow="tram rail_urban rail rail_electric rail_fast ship container cable_car subway aircraft wheelchair scooter drone" oneway="0"/>
    <type id="highway.primary" priority="12" numLanes="2" speed="27.78" disallow="tram rail_urban rail rail_electric rail_fast ship container cable_car subway aircraft wheelchair scooter drone" oneway="0"/>
    <type id="highway.residential" priority="3" numLanes="1" speed="13.89" disallow="tram rail_urban rail rail_electric rail_fast ship container cable_car subway aircraft wheelchair scooter drone" oneway="0"/>
    <type id="highway.secondary" priority="11" numLanes="1" speed="27.78" disallow="tram rail_urban rail rail_electric rail_fast ship container cable_car subway aircraft wheelchair scooter drone" oneway="0"/>
    <type id="highway.tertiary" priority="10" numLanes="1" speed="22.22" disallow="tram rail_urban rail rail_electric rail_fast ship container cable_car subway aircraft wheelchair scooter drone" oneway="0"/>

    <edge id=":10313413075_0" function="internal">
        <lane id=":10313413075_0_0" index="0" disallow="tram rail_urban rail rail_electric rail_fast ship container cable_car subway aircraft wheelchair scooter drone" speed="6.94" length="0.30" shape="556.61,665.66 556.83,665.87"/>
    </edge>
    <edge id=":1068425343_0" function="internal">
        <lane id=":1068425343_0_0" index="0" disallow="tram rail_urban rail rail_electric rail_fast ship container cable_car subway aircraft wheelchair scooter drone" speed="8.33" length="11.39" shape="892.31,1071.47 893.58,1074.39 894.48,1076.73 895.21,1079.13 895.97,1082.23"/>
    </edge>
    <edge id=":1068425343_1" function="internal">
        <lane id=":1068425343_1_0" index="0" disallow="tram rail_urban rail rail_electric rail_fast ship container cable_car subway aircraft wheelchair scooter drone" speed="6.61" length="9.25" shape="888.95,1078.11 891.55,1077.90 893.59,1078.52 895.06,1079.96 895.97,1082.23"/>
    </edge>
    <edge id=":1068425372_0" function="internal">
        <lane id=":1068425372_0_0" index="0" disallow="tram rail_urban rail rail_electric rail_fast ship container cable_car subway aircraft wheelchair scooter drone" speed="8.33" length="3.36" shape="223.77,575.47 224.68,575.59 225.24,576.08 225.81,576.58 226.73,576.77"/>
    </edge>
    <edge id=":1068425372_1" function="internal">
        <lane id=":1068425372_1_0" index="0" disallow="tram rail_urban rail rail_electric rail_fast ship container cable_car subway aircraft wheelchair scooter drone" speed="3.65" length="4.67" shape="223.77,575.47 225.07,576.10 225.57,576.83 225.29,577.68 224.21,578.64"/>
    </edge>
    <edge id=":1068425379_0" function="internal">
        <lane id=":1068425379_0_0" index="0" disallow="tram rail_urban rail rail_electric rail_fast ship container cable_car subway aircraft wheelchair scooter drone" speed="5.56" length="6.99" shape="571.87,681.48 573.27,682.59 574.79,683.05 576.43,682.86 578.20,682.01"/>
    </edge>
    <edge id=":1068425379_1" function="internal">
        <lane id=":1068425379_1_0" index="0" disallow="tram rail_urban rail rail_electric rail_fast ship container cable_car subway aircraft wheelchair scooter drone" speed="5.56" length="7.45" shape="572.82,687.03 574.11,685.24 575.13,684.13 576.35,683.20 578.20,682.01"/>
    </edge>
    <edge id=":1068425393_0" function="internal">
        <lane id=":1068425393_0_0" index="0" disallow="tram rail_urban rail rail_electric rail_fast ship container cable_car subway aircraft wheelchair scooter drone" speed="8.33" length="3.78" shape="112.26,675.38 111.85,674.34 111.48,673.66 110.96,673.08 110.12,672.34"/>
    </edge>
    <edge id=":1068425393_1" function="internal">
        <lane id=":1068425393_1_0" index="0" disallow="tram rail_urban rail rail_electric rail_fast ship container cable_car subway aircraft wheelchair scooter drone" speed="3.65" length="4.67" shape="112.19,669.90 112.59,671.29 112.38,672.16 111.55,672.51 110.12,672.34"/>
    </edge>
    <edge id=":1086399425_0" function="internal">
        <lane id=":1086399425_0_0" index="0" disallow="tram rail_urban rail rail_electric rail_fast ship container cable_car subway aircraft wheelchair scooter drone" speed="5.56" length="11.25" shape="613.77,739.47 607.91,749.07"/>
    </edge>
    <edge id=":1086399425_1" function="internal">
        <lane id=":1086399425_1_0" index="0" disallow="tram rail_urban rail rail_electric rail_fast ship container cable_car subway aircraft wheelchair scooter drone" speed="5.56" length="9.05" shape="613.77,739.47 612.15,741.43 610.36,742.28 608.39,742.01 606.25,740.63"/>
    </edge>
    <edge id=":11025090577_0" function="internal">
        <lane id=":11025090577_0_0" index="0" disallow="tram rail_urban rail rail_electric rail_fast ship container cable_car subway aircraft wheelchair scooter drone" speed="8.33" length="3.02" shape="786.43,444.61 785.57,444.86 785.01,445.10 784.44,445.35 783.58,445.60"/>
    </edge>
    <edge id=":11025090577_1" function="internal">
        <lane id=":11025090577_1_0" index="0" disallow="tram rail_urban rail rail_electric rail_fast ship container cable_car subway aircraft wheelchair scooter drone" speed="8.33" length="3.03" width="2.55" shape="782.86,442.48 783.75,442.33 784.36,442.30 784.98,442.28 785.86,442.13"/>
    </edge>
    <edge id=":11121444744_0" function="internal">
        <lane id=":11121444744_0_0" index="0" disallow="tram rail_urban rail rail_electric rail_fast ship container cable_car subway aircraft wheelchair scooter drone" speed="8.33" length="3.00" width="3.70" shape="925.95,248.51 928.65,247.21"/>
    </edge>
    <edge id=":11212703679_0" function="internal">
        <lane id=":11212703679_0_0" index="0" disallow="pedestrian tram rail_urban rail rail_electric rail_fast ship container cable_car subway aircraft wheelchair scooter drone" speed="6.49" length="9.03" shape="1168.50,180.14 1166.90,178.25 1165.07,177.34 1163.04,177.40 1160.78,178.43"/>
    </edge>
    <edge id=":11212703679_1" function="internal">
        <lane id=":11212703679_1_0" index="0" disallow="pedestrian tram rail_urban rail rail_electric rail_fast ship container cable_car subway aircraft wheelchair scooter drone" speed="8.33" length="14.42" shape="1168.50,180.14 1160.72,168.00"/>
    </edge>
    <edge id=":11212703679_2" function="internal">
        <lane id=":11212703679_2_0" index="0" disallow="pedestrian tram rail_urban rail rail_electric rail_fast ship container cable_car subway aircraft wheelchair scooter drone" speed="7.20" length="11.81" shape="1168.50,180.14 1166.69,176.60 1166.09,173.69 1166.73,171.40 1168.59,169.74"/>
    </edge>
    <edge id=":11212703679_3" function="internal">
        <lane id=":11212703679_3_0" index="0" disallow="tram rail_urban rail rail_electric rail_fast ship container cable_car subway aircraft wheelchair scooter drone" speed="8.33" length="11.22" shape="1170.28,172.46 1160.78,178.43"/>
    </edge>
    <edge id=":11212703679_4" function="internal">
        <lane id=":11212703679_4_0" index="0" disallow="pedestrian tram rail_urban rail rail_electric rail_fast ship container cable_car subway aircraft wheelchair scooter drone" speed="7.53" length="11.71" shape="1170.28,172.46 1167.85,173.18 1165.45,172.68 1163.07,170.95 1160.72,168.00"/>
    </edge>
    <edge id=":11212703679_5" function="internal">
        <lane id=":11212703679_5_0" index="0" disallow="tram rail_urban rail rail_electric rail_fast ship container cable_car subway aircraft wheelchair scooter drone" speed="3.65" length="4.68" shape="1170.28,172.46 1168.84,172.41 1168.08,171.95 1167.99,171.05 1168.59,169.74"/>
    </edge>
    <edge id=":11212703679_6" function="internal">
        <lane id=":11212703679_6_0" index="0" disallow="pedestrian tram rail_urban rail rail_electric rail_fast ship container cable_car subway aircraft wheelchair scooter drone" speed="6.50" length="9.05" shape="1159.05,175.75 1160.93,174.11 1161.84,172.28 1161.77,170.24 1160.72,168.00"/>
    </edge>
    <edge id=":11212703679_7" function="internal">
        <lane id=":11212703679_7_0" index="0" disallow="tram rail_urban rail rail_electric rail_fast ship container cable_car subway aircraft wheelchair scooter drone" speed="8.33" length="11.27" shape="1159.05,175.75 1168.59,169.74"/>
    </edge>
    <edge id=":11212703679_8" function="internal">
        <lane id=":11212703679_8_0" index="0" disallow="tram rail_urban rail rail_electric rail_fast ship container cable_car subway aircraft wheelchair scooter drone" speed="3.65" length="4.67" shape="1159.05,175.75 1160.49,175.77 1161.26,176.22 1161.36,177.11 1160.78,178.43"/>
    </edge>
    <edge id=":11594157572_0" function="internal">
        <lane id=":11594157572_0_0" index="0" disallow="tram rail_urban rail rail_electric rail_fast ship container cable_car subway aircraft wheelchair scooter drone" speed="3.65" length="4.67" shape="67.23,19.48 66.89,18.08 67.14,17.22 67.98,16.90 69.40,17.13"/>
    </edge>
    <edge id=":11820091194_0" function="internal">
        <lane id=":11820091194_0_0" index="0" disallow="tram rail_urban rail rail_electric rail_fast ship container cable_car subway aircraft wheelchair scooter drone" speed="6.94" length="0.10" shape="265.33,796.59 265.33,796.59"/>
    </edge>
    <edge id=":1191505171_0" function="internal">
        <lane id=":1191505171_0_0" index="0" disallow="tram rail_urban rail rail_electric rail_fast ship container cable_car subway aircraft wheelchair scooter drone" speed="3.65" length="4.67" shape="1135.64,12.09 1137.08,12.12 1137.84,12.58 1137.94,13.47 1137.36,14.79"/>
    </edge>
    <edge id=":1210001883_0" function="internal">
        <lane id=":1210001883_0_0" index="0" disallow="tram rail_urban rail rail_electric rail_fast ship container cable_car subway aircraft wheelchair scooter drone" speed="3.65" length="4.67" shape="1275.88,566.05 1277.32,566.14 1278.07,566.63 1278.13,567.52 1277.49,568.81"/>
    </edge>
    <edge id=":12329087451_0" function="internal">
        <lane id=":12329087451_0_0" index="0" disallow="tram rail_urban rail rail_electric rail_fast ship container cable_car subway aircraft wheelchair scooter drone" speed="6.94" length="3.52" shape="377.20,488.38 377.82,487.63 378.55,487.36 379.29,487.09 379.91,486.34"/>
    </edge>
    <edge id=":12329087451_1" function="internal">
        <lane id=":12329087451_1_0" index="0" disallow="tram rail_urban rail rail_electric rail_fast ship container cable_car subway aircraft wheelchair scooter drone" speed="3.65" length="4.67" shape="377.20,488.38 378.43,487.63 379.32,487.61 379.88,488.31 380.10,489.73"/>
    </edge>
    <edge id=":12364889237_0" function="internal">
        <lane id=":12364889237_0_0" index="0" disallow="tram rail_urban rail rail_electric rail_fast ship container cable_car subway aircraft wheelchair scooter drone" speed="2.78" length="4.67" shape="1116.97,645.38 1115.53,645.29 1114.79,644.80 1114.73,643.90 1115.38,642.61"/>
    </edge>
    <edge id=":12364889237_1" function="internal">
        <lane id=":12364889237_1_0" index="0" disallow="tram rail_urban rail rail_electric rail_fast ship container cable_car subway aircraft wheelchair scooter drone" speed="2.78" length="3.52" shape="1113.57,645.50 1114.27,644.81 1114.47,644.05 1114.68,643.30 1115.38,642.61"/>
    </edge>
    <edge id=":1313461245_0" function="internal">
        <lane id=":1313461245_0_0" index="0" disallow="tram rail_urban rail rail_electric rail_fast ship container cable_car subway aircraft wheelchair scooter drone" speed="2.78" length="4.67" shape="1142.78,615.53 1142.98,614.10 1143.52,613.39 1144.42,613.40 1145.66,614.13"/>
    </edge>
    <edge id=":1334747875_0" function="internal">
        <lane id=":1334747875_0_0" index="0" disallow="pedestrian tram rail_urban rail rail_electric rail_fast ship container cable_car subway aircraft wheelchair scooter drone" speed="8.33" length="0.30" shape="397.95,446.17 398.06,445.90"/>
    </edge>
    <edge id=":1354649452_0" function="internal">
        <lane id=":1354649452_0_0" index="0" disallow="pedestrian tram rail_urban rail rail_electric rail_fast ship container cable_car subway aircraft wheelchair scooter drone" speed="8.33" length="0.16" width="3.20" shape="136.09,65.98 136.13,65.95 136.15,65.93 136.17,65.90 136.20,65.87"/>
    </edge>
    <edge id=":1376346308_0" function="internal">
        <lane id=":1376346308_0_0" index="0" disallow="tram rail_urban rail rail_electric rail_fast ship container cable_car subway aircraft wheelchair scooter drone" speed="3.65" length="4.67" shape="980.90,1014.88 979.46,1014.74 978.73,1014.23 978.70,1013.33 979.38,1012.06"/>
    </edge>
    <edge id=":151007947_0" function="internal">
        <lane id=":151007947_0_0" index="0" disallow="tram rail_urban rail rail_electric rail_fast ship container cable_car subway aircraft wheelchair scooter drone" speed="8.33" length="5.42" shape="476.16,922.92 479.05,927.50"/>
    </edge>
    <edge id=":151007947_1" function="internal">
        <lane id=":151007947_1_0" index="0" disallow="tram rail_urban rail rail_electric rail_fast ship container cable_car subway aircraft wheelchair scooter drone" speed="3.65" length="4.67" shape="476.01,926.50 477.15,925.61 478.03,925.48 478.67,926.11 479.05,927.50"/>
    </edge>
    <edge id=":151007948_0" function="internal">
        <lane id=":151007948_0_0" index="0" disallow="tram rail_urban rail rail_electric rail_fast ship container cable_car subway aircraft wheelchair scooter drone" speed="6.52" length="9.00" shape="472.88,903.67 470.89,905.13 469.84,906.88 469.72,908.91 470.54,911.22"/>
    </edge>
    <edge id=":151007948_1" function="internal">
        <lane id=":151007948_1_0" index="0" disallow="tram rail_urban rail rail_electric rail_fast ship container cable_car subway aircraft wheelchair scooter drone" speed="8.33" length="11.13" shape="465.38,901.36 470.54,911.22"/>
    </edge>
    <edge id=":151007959_0" function="internal">
        <lane id=":151007959_0_0" index="0" disallow="tram rail_urban rail rail_electric rail_fast ship container cable_car subway aircraft wheelchair scooter drone" speed="8.33" length="5.61" shape="529.26,881.77 527.98,882.33 526.84,881.88 525.61,881.25 524.01,881.28"/>
    </edge>
    <edge id=":151007959_1" function="internal">
        <lane id=":151007959_1_0" index="0" disallow="tram rail_urban rail rail_electric rail_fast ship container cable_car subway aircraft wheelchair scooter drone" speed="3.65" length="4.67" shape="529.26,881.77 527.84,882.01 527.00,881.69 526.75,880.83 527.08,879.43"/>
    </edge>
    <edge id=":17312853_0" function="internal">
        <lane id=":17312853_0_0" index="0" disallow="pedestrian tram rail_urban rail rail_electric rail_fast ship container cable_car subway aircraft wheelchair scooter drone" speed="7.61" length="13.03" shape="1101.34,47.45 1098.51,43.85 1095.85,41.73 1093.36,41.10 1091.03,41.96"/>
    </edge>
    <edge id=":17312853_1" function="internal">
        <lane id=":17312853_1_0" index="0" disallow="pedestrian tram rail_urban rail rail_electric rail_fast ship container cable_car subway aircraft wheelchair scooter drone" speed="13.89" length="17.30" shape="1101.34,47.45 1091.95,32.95"/>
        <lane id=":17312853_1_1" index="1" disallow="pedestrian tram rail_urban rail rail_electric rail_fast ship container cable_car subway aircraft wheelchair scooter drone" speed="13.89" length="17.30" shape="1104.04,45.73 1094.63,31.20"/>
        <lane id=":17312853_1_2" index="2" disallow="pedestrian tram rail_urban rail rail_electric rail_fast ship container cable_car subway aircraft wheelchair scooter drone" speed="13.89" length="17.30" shape="1106.73,44.00 1097.32,29.46"/>
    </edge>
    <edge id=":17312853_4" function="internal">
        <lane id=":17312853_4_0" index="0" disallow="pedestrian tram rail_urban rail rail_electric rail_fast ship container cable_car subway aircraft wheelchair scooter drone" speed="7.97" length="14.79" shape="1106.73,44.00 1104.12,39.42 1103.02,35.70 1103.42,32.85 1105.34,30.87"/>
    </edge>
    <edge id=":17312853_5" function="internal">
        <lane id=":17312853_5_0" index="0" disallow="tram rail_urban rail rail_electric rail_fast ship container cable_car subway aircraft wheelchair scooter drone" speed="8.33" length="18.48" shape="1108.54,36.41 1103.03,38.81 1098.33,39.82 1094.37,40.51 1091.03,41.96"/>
    </edge>
    <edge id=":17312853_6" function="internal">
        <lane id=":17312853_6_0" index="0" disallow="pedestrian tram rail_urban rail rail_electric rail_fast ship container cable_car subway aircraft wheelchair scooter drone" speed="8.14" length="14.15" shape="1106.94,33.64 1103.25,35.18 1099.96,35.29 1097.09,33.96 1094.63,31.20"/>
        <lane id=":17312853_6_1" index="1" disallow="pedestrian tram rail_urban rail rail_electric rail_fast ship container cable_car subway aircraft wheelchair scooter drone" speed="7.46" length="11.73" shape="1106.94,33.64 1104.46,34.47 1102.02,34.05 1099.64,32.38 1097.32,29.46"/>
    </edge>
    <edge id=":17312853_8" function="internal">
        <lane id=":17312853_8_0" index="0" disallow="tram rail_urban rail rail_electric rail_fast ship container cable_car subway aircraft wheelchair scooter drone" speed="3.65" length="4.67" shape="1106.94,33.64 1105.50,33.55 1104.76,33.06 1104.70,32.16 1105.34,30.87"/>
    </edge>
    <edge id=":17322918_0" function="internal">
        <lane id=":17322918_0_0" index="0" disallow="tram rail_urban rail rail_electric rail_fast ship container cable_car subway aircraft wheelchair scooter drone" speed="8.33" length="0.25" shape="539.14,655.74 539.21,655.77 539.25,655.79 539.30,655.81 539.37,655.84"/>
    </edge>
    <edge id=":17322926_0" function="internal">
        <lane id=":17322926_0_0" index="0" disallow="tram rail_urban rail rail_electric rail_fast ship container cable_car subway aircraft wheelchair scooter drone" speed="5.56" length="6.52" shape="362.99,521.04 361.67,522.18 360.26,522.73 358.74,522.70 357.11,522.09"/>
    </edge>
    <edge id=":17322926_1" function="internal">
        <lane id=":17322926_1_0" index="0" disallow="tram rail_urban rail rail_electric rail_fast ship container cable_car subway aircraft wheelchair scooter drone" speed="3.93" length="2.17" shape="358.63,519.27 359.17,519.48 359.68,519.49 360.15,519.30 360.59,518.93"/>
    </edge>
    <edge id=":17322927_0" function="internal">
        <lane id=":17322927_0_0" index="0" disallow="tram rail_urban rail rail_electric rail_fast ship container cable_car subway aircraft wheelchair scooter drone" speed="8.33" length="11.31" shape="408.40,418.33 411.72,407.52"/>
    </edge>
    <edge id=":17322927_1" function="internal">
        <lane id=":17322927_1_0" index="0" disallow="tram rail_urban rail rail_electric rail_fast ship container cable_car subway aircraft wheelchair scooter drone" speed="5.56" length="9.05" shape="408.40,418.33 409.42,416.01 410.92,414.69 412.88,414.37 415.32,415.05"/>
    </edge>
    <edge id=":17322928_0" function="internal">
        <lane id=":17322928_0_0" index="0" disallow="tram rail_urban rail rail_electric rail_fast ship container cable_car subway aircraft wheelchair scooter drone" speed="6.46" length="9.03" shape="388.27,481.75 386.15,480.47 384.96,478.82 384.70,476.80 385.38,474.41"/>
    </edge>
    <edge id=":17322928_1" function="internal">
        <lane id=":17322928_1_0" index="0" disallow="tram rail_urban rail rail_electric rail_fast ship container cable_car subway aircraft wheelchair scooter drone" speed="8.33" length="11.18" shape="380.73,484.58 385.38,474.41"/>
    </edge>
    <edge id=":1816733845_0" function="internal">
        <lane id=":1816733845_0_0" index="0" disallow="tram rail_urban rail rail_electric rail_fast ship container cable_car subway aircraft wheelchair scooter drone" speed="8.33" length="5.69" shape="158.82,986.25 158.12,984.71 157.57,983.65 156.79,982.80 155.43,981.87"/>
    </edge>
    <edge id=":1816733845_1" function="internal">
        <lane id=":1816733845_1_0" index="0" disallow="tram rail_urban rail rail_electric rail_fast ship container cable_car subway aircraft wheelchair scooter drone" speed="8.33" length="5.66" shape="160.88,982.41 159.21,982.68 158.02,982.80 156.89,982.59 155.43,981.87"/>
    </edge>
    <edge id=":1828819399_0" function="internal">
        <lane id=":1828819399_0_0" index="0" disallow="tram rail_urban rail rail_electric rail_fast ship container cable_car subway aircraft wheelchair scooter drone" speed="8.33" length="13.60" shape="10.44,755.68 9.53,751.36 8.33,747.89 6.85,745.27 5.08,743.50"/>
    </edge>
    <edge id=":1828819399_1" function="internal">
        <lane id=":1828819399_1_0" index="0" disallow="tram rail_urban rail rail_electric rail_fast ship container cable_car subway aircraft wheelchair scooter drone" speed="7.38" length="17.63" shape="10.44,755.68 10.25,750.26 11.82,747.25 15.16,746.66 20.27,748.48"/>
    </edge>
    <edge id=":1828819399_2" function="internal">
        <lane id=":1828819399_2_0" index="0" disallow="tram rail_urban rail rail_electric rail_fast ship container cable_car subway aircraft wheelchair scooter drone" speed="3.65" length="4.67" shape="10.44,755.68 11.03,754.37 11.76,753.84 12.61,754.11 13.60,755.16"/>
    </edge>
    <edge id=":1828819399_3" function="internal">
        <lane id=":1828819399_3_0" index="0" disallow="tram rail_urban rail rail_electric rail_fast ship container cable_car subway aircraft wheelchair scooter drone" speed="5.57" length="9.38" shape="18.83,751.33 16.11,750.37 14.33,750.68 13.49,752.28 13.60,755.16"/>
    </edge>
    <edge id=":1828819399_4" function="internal">
        <lane id=":1828819399_4_0" index="0" disallow="tram rail_urban rail rail_electric rail_fast ship container cable_car subway aircraft wheelchair scooter drone" speed="8.33" length="15.84" shape="18.83,751.33 15.37,749.56 11.81,747.65 8.32,745.62 5.08,743.50"/>
    </edge>
    <edge id=":1828819399_5" function="internal">
        <lane id=":1828819399_5_0" index="0" disallow="tram rail_urban rail rail_electric rail_fast ship container cable_car subway aircraft wheelchair scooter drone" speed="3.65" length="4.67" shape="18.83,751.33 18.12,750.08 18.12,749.18 18.84,748.65 20.27,748.48"/>
    </edge>
    <edge id=":1828819399_6" function="internal">
        <lane id=":1828819399_6_0" index="0" disallow="tram rail_urban rail rail_electric rail_fast ship container cable_car subway aircraft wheelchair scooter drone" speed="8.33" length="15.37" shape="6.92,740.88 10.10,742.97 13.45,744.91 16.88,746.74 20.27,748.48"/>
    </edge>
    <edge id=":1828819399_7" function="internal">
        <lane id=":1828819399_7_0" index="0" disallow="tram rail_urban rail rail_electric rail_fast ship container cable_car subway aircraft wheelchair scooter drone" speed="8.33" length="16.13" shape="6.92,740.88 9.19,743.08 11.05,746.19 12.52,750.22 13.60,755.16"/>
    </edge>
    <edge id=":1828819399_8" function="internal">
        <lane id=":1828819399_8_0" index="0" disallow="tram rail_urban rail rail_electric rail_fast ship container cable_car subway aircraft wheelchair scooter drone" speed="3.65" length="4.67" shape="6.92,740.88 7.44,742.23 7.31,743.11 6.52,743.53 5.08,743.50"/>
    </edge>
    <edge id=":1837018201_0" function="internal">
        <lane id=":1837018201_0_0" index="0" disallow="tram rail_urban rail rail_electric rail_fast ship container cable_car subway aircraft wheelchair scooter drone" speed="3.65" length="4.67" shape="17.82,824.84 16.53,825.50 15.64,825.45 15.14,824.71 15.03,823.28"/>
    </edge>
    <edge id=":1943951308_0" function="internal">
        <lane id=":1943951308_0_0" index="0" disallow="tram rail_urban rail rail_electric rail_fast ship container cable_car subway aircraft wheelchair scooter drone" speed="8.33" length="2.11" shape="743.44,1119.38 741.63,1118.30"/>
    </edge>
    <edge id=":1958151774_0" function="internal">
        <lane id=":1958151774_0_0" index="0" disallow="tram rail_urban rail rail_electric rail_fast ship container cable_car subway aircraft wheelchair scooter drone" speed="3.65" length="4.67" shape="831.71,975.29 833.14,975.48 833.85,976.02 833.84,976.92 833.12,978.16"/>
    </edge>
    <edge id=":1968663193_0" function="internal">
        <lane id=":1968663193_0_0" index="0" disallow="tram rail_urban rail rail_electric rail_fast ship container cable_car subway aircraft wheelchair scooter drone" speed="2.08" length="0.62" shape="1215.62,696.35 1215.44,696.38 1215.32,696.41 1215.20,696.45 1215.04,696.54"/>
    </edge>
    <edge id=":1968663228_0" function="internal">
        <lane id=":1968663228_0_0" index="0" disallow="tram rail_urban rail rail_electric rail_fast ship container cable_car subway aircraft wheelchair scooter drone" speed="2.08" length="0.40" shape="1134.67,725.93 1134.56,725.89 1134.48,725.85 1134.42,725.81 1134.32,725.74"/>
    </edge>
    <edge id=":1969570796_0" function="internal">
        <lane id=":1969570796_0_0" index="0" disallow="tram rail_urban rail rail_electric rail_fast ship container cable_car subway aircraft wheelchair scooter drone" speed="2.08" length="7.97" shape="992.31,761.70 990.94,759.90 989.37,758.78 987.61,758.32 985.67,758.53"/>
    </edge>
    <edge id=":1969570796_1" function="internal">
        <lane id=":1969570796_1_0" index="0" disallow="tram rail_urban rail rail_electric rail_fast ship container cable_car subway aircraft wheelchair scooter drone" speed="2.78" length="9.20" shape="994.45,755.79 985.67,758.53"/>
    </edge>
    <edge id=":1971680828_0" function="internal">
        <lane id=":1971680828_0_0" index="0" disallow="tram rail_urban rail rail_electric rail_fast ship container cable_car subway aircraft wheelchair scooter drone" speed="8.33" length="3.52" shape="1085.83,164.76 1086.42,165.61 1086.87,166.17 1087.40,166.65 1088.23,167.29"/>
    </edge>
    <edge id=":1971680828_1" function="internal">
        <lane id=":1971680828_1_0" index="0" disallow="tram rail_urban rail rail_electric rail_fast ship container cable_car subway aircraft wheelchair scooter drone" speed="3.65" length="4.67" shape="1085.83,164.76 1085.83,166.20 1085.39,166.98 1084.51,167.09 1083.17,166.54"/>
    </edge>
    <edge id=":2456014312_0" function="internal">
        <lane id=":2456014312_0_0" index="0" disallow="tram rail_urban rail rail_electric rail_fast ship container cable_car subway aircraft wheelchair scooter drone" speed="8.33" length="0.29" shape="224.77,424.68 224.55,424.49"/>
    </edge>
    <edge id=":2456014312_1" function="internal">
        <lane id=":2456014312_1_0" index="0" disallow="tram rail_urban rail rail_electric rail_fast ship container cable_car subway aircraft wheelchair scooter drone" speed="8.33" length="0.31" shape="226.69,422.10 226.92,422.31"/>
    </edge>
    <edge id=":250065559_0" function="internal">
        <lane id=":250065559_0_0" index="0" disallow="tram rail_urban rail rail_electric rail_fast ship container cable_car subway aircraft wheelchair scooter drone" speed="3.65" length="4.67" shape="661.97,1096.87 663.27,1097.51 663.77,1098.25 663.47,1099.10 662.38,1100.04"/>
    </edge>
    <edge id=":25267632_0" function="internal">
        <lane id=":25267632_0_0" index="0" disallow="tram rail_urban rail rail_electric rail_fast ship container cable_car subway aircraft wheelchair scooter drone" speed="6.38" length="9.04" shape="118.96,1092.13 116.80,1090.88 114.79,1090.65 112.94,1091.45 111.23,1093.28"/>
    </edge>
    <edge id=":25267632_1" function="internal">
        <lane id=":25267632_1_0" index="0" disallow="tram rail_urban rail rail_electric rail_fast ship container cable_car subway aircraft wheelchair scooter drone" speed="8.33" length="15.59" shape="118.96,1092.13 116.41,1089.33 115.24,1086.04 115.45,1082.28 117.04,1078.02"/>
    </edge>
    <edge id=":25267632_2" function="internal">
        <lane id=":25267632_2_0" index="0" disallow="tram rail_urban rail rail_electric rail_fast ship container cable_car subway aircraft wheelchair scooter drone" speed="8.33" length="15.87" shape="108.61,1091.45 110.81,1088.25 113.04,1084.87 115.17,1081.43 117.04,1078.02"/>
    </edge>
    <edge id=":25267632_3" function="internal">