<?xml version="1.0" encoding="UTF-8"?>

<!-- generated on 2025-02-03 13:02:12.770269 by osmWebWizard.py v1_21_0+2163-fe398d3a3bc
<configuration>
    <net-file value="/Users/ennser/Downloads/sumo/sumo/tools/2025-02-03-13-01-59/osm.net.xml.gz"/>
    <output-trip-file value="/Users/ennser/Downloads/sumo/sumo/tools/2025-02-03-13-01-59/osm.passenger.trips.xml"/>
    <route-file value="/Users/ennser/Downloads/sumo/sumo/tools/2025-02-03-13-01-59/osm.passenger.rou.xml"/>
    <prefix value="veh"/>
    <trip-attributes value="departLane=&quot;best&quot;"/>
    <fringe-start-attributes value="departSpeed=&quot;max&quot;"/>
    <vehicle-class value="passenger"/>
    <lanes value="True"/>
    <fringe-factor value="10"/>
    <allow-fringe.min-length value="1000.0"/>
    <via-edge-types value="highway.motorway,highway.motorway_link,highway.trunk_link,highway.primary_link,highway.secondary_link,highway.tertiary_link"/>
    <min-distance value="300.0"/>
    <min-distance.fringe value="10.0"/>
    <remove-loops value="True"/>
    <validate value="True"/>
    <insertion-density value="12.0"/>
</configuration>
-->

<!-- generated on 2025-02-03 13:02:12 by Eclipse SUMO duarouter Version v1_21_0+2163-fe398d3a3bc
<duarouterConfiguration xmlns:xsi="http://www.w3.org/2001/XMLSchema-instance" xsi:noNamespaceSchemaLocation="http://sumo.dlr.de/xsd/duarouterConfiguration.xsd">

    <input>
        <net-file value="/Users/ennser/Downloads/sumo/sumo/tools/2025-02-03-13-01-59/osm.net.xml.gz"/>
        <route-files value="/Users/ennser/Downloads/sumo/sumo/tools/2025-02-03-13-01-59/osm.passenger.trips.xml"/>
    </input>

    <output>
        <output-file value="/Users/ennser/Downloads/sumo/sumo/tools/2025-02-03-13-01-59/osm.passenger.trips.xml.tmp"/>
        <alternatives-output value="NUL"/>
        <write-trips value="true"/>
    </output>

    <processing>
        <remove-loops value="true"/>
    </processing>

    <time>
        <begin value="0.0"/>
        <end value="3600.0"/>
    </time>

    <report>
        <no-warnings value="true"/>
        <ignore-errors value="true"/>
        <no-step-log value="true"/>
    </report>

</duarouterConfiguration>
-->

<routes xmlns:xsi="http://www.w3.org/2001/XMLSchema-instance" xsi:noNamespaceSchemaLocation="http://sumo.dlr.de/xsd/routes_file.xsd">
    <vType id="veh_passenger" vClass="passenger"/>
    <trip id="veh0" type="veh_passenger" depart="0.00" departLane="best" departSpeed="max" from="270461283" to="165778776"/>
    <trip id="veh1" type="veh_passenger" depart="10.97" departLane="best" from="-4952861#3" to="113145683"/>
    <trip id="veh3" type="veh_passenger" depart="32.92" departLane="best" from="5930434#0" to="-26154331"/>
    <trip id="veh4" type="veh_passenger" depart="43.90" departLane="best" from="1116876278" to="190494839#0"/>
    <trip id="veh5" type="veh_passenger" depart="54.87" departLane="best" from="-1247141273" to="-912905972"/>
    <trip id="veh6" type="veh_passenger" depart="65.85" departLane="best" departSpeed="max" from="27220131" to="29065101"/>
    <trip id="veh8" type="veh_passenger" depart="87.80" departLane="best" from="4583443" to="-1184640625"/>
    <trip id="veh9" type="veh_passenger" depart="98.77" departLane="best" from="44028858" to="39314766#0"/>
    <trip id="veh11" type="veh_passenger" depart="120.72" departLane="best" departSpeed="max" from="8080526#0" to="176378054#0"/>
    <trip id="veh13" type="veh_passenger" depart="142.67" departLane="best" from="4998695#1" to="30018147"/>
    <trip id="veh14" type="veh_passenger" depart="153.65" departLane="best" from="44028860" to="-44005501"/>
    <trip id="veh21" type="veh_passenger" depart="230.47" departLane="best" departSpeed="max" from="-185242442" to="113296995#1"/>
    <trip id="veh23" type="veh_passenger" depart="252.42" departLane="best" departSpeed="max" from="-8080546" to="1096372366"/>
    <trip id="veh24" type="veh_passenger" depart="263.40" departLane="best" departSpeed="max" from="375939521#0" to="8072726"/>
    <trip id="veh26" type="veh_passenger" depart="285.35" departLane="best" departSpeed="max" from="-26158696" to="43981491"/>
    <trip id="veh32" type="veh_passenger" depart="351.20" departLane="best" departSpeed="max" from="-343878884" to="8072740#0"/>
    <trip id="veh36" type="veh_passenger" depart="395.10" departLane="best" departSpeed="max" from="26154324" to="778380374#0"/>
    <trip id="veh37" type="veh_passenger" depart="406.07" departLane="best" departSpeed="max" from="105771178" to="1128049584#0"/>
    <trip id="veh38" type="veh_passenger" depart="417.05" departLane="best" from="947169050" to="26420644#0"/>
    <trip id="veh42" type="veh_passenger" depart="460.95" departLane="best" departSpeed="max" from="-172986927#3" to="230483955#0"/>
    <trip id="veh43" type="veh_passenger" depart="471.92" departLane="best" from="9226587#0" to="27122129"/>
    <trip id="veh44" type="veh_passenger" depart="482.90" departLane="best" departSpeed="max" from="877619596#0" to="662302258#2"/>
    <trip id="veh47" type="veh_passenger" depart="515.82" departLane="best" from="1214297263" to="8072751"/>
    <trip id="veh53" type="veh_passenger" depart="581.67" departLane="best" departSpeed="max" from="-5930416#1" to="-25950723#1"/>
    <trip id="veh54" type="veh_passenger" depart="592.65" departLane="best" from="520614631" to="8072740#3"/>
    <trip id="veh56" type="veh_passenger" depart="614.60" departLane="best" departSpeed="max" from="-185196004" to="4997555#0"/>
    <trip id="veh58" type="veh_passenger" depart="636.55" departLane="best" departSpeed="max" from="133999725#0" to="29065101"/>
    <trip id="veh60" type="veh_passenger" depart="658.50" departLane="best" from="113145641#0" to="1096372366"/>
    <trip id="veh62" type="veh_passenger" depart="680.45" departLane="best" departSpeed="max" from="-29065101" to="1336826341#0"/>
    <trip id="veh63" type="veh_passenger" depart="691.42" departLane="best" from="9226541#1" to="347015852"/>
    <trip id="veh65" type="veh_passenger" depart="713.37" departLane="best" departSpeed="max" from="-25949689" to="113145683"/>
    <trip id="veh68" type="veh_passenger" depart="746.30" departLane="best" departSpeed="max" from="-185196004" to="343878884"/>
    <trip id="veh70" type="veh_passenger" depart="768.25" departLane="best" from="4998702#0" to="-26154324"/>
    <trip id="veh72" type="veh_passenger" depart="790.20" departLane="best" from="8034547" to="29065761"/>
    <trip id="veh77" type="veh_passenger" depart="845.07" departLane="best" departSpeed="max" from="91929235#0" to="-26565479"/>
    <trip id="veh78" type="veh_passenger" depart="856.05" departLane="best" departSpeed="max" from="105771178" to="185196004"/>
    <trip id="veh85" type="veh_passenger" depart="932.87" departLane="best" departSpeed="max" from="877619596#0" to="8072726"/>
    <trip id="veh88" type="veh_passenger" depart="965.80" departLane="best" departSpeed="max" from="105771178" to="-25950723#1"/>
    <trip id="veh89" type="veh_passenger" depart="976.77" departLane="best" departSpeed="max" from="-9567011#1" to="694681348#3"/>
    <trip id="veh90" type="veh_passenger" depart="987.75" departLane="best" departSpeed="max" from="375939521#0" to="4998704"/>
    <trip id="veh94" type="veh_passenger" depart="1031.65" departLane="best" departSpeed="max" from="877619596#0" to="26565519"/>
    <trip id="veh95" type="veh_passenger" depart="1042.62" departLane="best" departSpeed="max" from="-172986927#3" to="4997572"/>
    <trip id="veh97" type="veh_passenger" depart="1064.57" departLane="best" departSpeed="max" from="-26154383" to="8072751"/>
    <trip id="veh98" type="veh_passenger" depart="1075.55" departLane="best" departSpeed="max" from="-185242442" to="-877619596#1"/>
    <trip id="veh101" type="veh_passenger" depart="1108.47" departLane="best" from="29067898#0" to="1211897198"/>
    <trip id="veh102" type="veh_passenger" depart="1119.45" departLane="best" departSpeed="max" from="105771178" to="4997572"/>
    <trip id="veh103" type="veh_passenger" depart="1130.42" departLane="best" from="23309134" to="8072726"/>
    <trip id="veh107" type="veh_passenger" depart="1174.32" departLane="best" departSpeed="max" from="-665186184" to="4952863"/>
    <trip id="veh109" type="veh_passenger" depart="1196.27" departLane="best" departSpeed="max" from="-185196004" to="1096372366"/>
    <trip id="veh110" type="veh_passenger" depart="1207.25" departLane="best" departSpeed="max" from="375939521#0" to="8072726"/>
    <trip id="veh111" type="veh_passenger" depart="1218.22" departLane="best" from="537176977#0" to="714680571"/>
    <trip id="veh112" type="veh_passenger" depart="1229.20" departLane="best" departSpeed="max" from="-8080546" to="-4997590#1"/>
    <trip id="veh113" type="veh_passenger" depart="1240.17" departLane="best" from="4997584#1" to="420290632#0"/>
    <trip id="veh115" type="veh_passenger" depart="1262.12" departLane="best" from="-28151969" to="-1184640625"/>
    <trip id="veh116" type="veh_passenger" depart="1273.10" departLane="best" departSpeed="max" from="469205306" to="1272891358"/>
    <trip id="veh121" type="veh_passenger" depart="1327.97" departLane="best" departSpeed="max" from="307641760#0" to="10130315"/>
    <trip id="veh128" type="veh_passenger" depart="1404.80" departLane="best" from="116758232" to="-1184640625"/>
    <trip id="veh129" type="veh_passenger" depart="1415.77" departLane="best" departSpeed="max" from="-185242442" to="714680571"/>
    <trip id="veh131" type="veh_passenger" depart="1437.72" departLane="best" from="27497426" to="4997580#0"/>
    <trip id="veh132" type="veh_passenger" depart="1448.70" departLane="best" departSpeed="max" from="-261458722" to="-345649138"/>
    <trip id="veh133" type="veh_passenger" depart="1459.67" departLane="best" departSpeed="max" from="-5930416#1" to="7832222"/>
    <trip id="veh134" type="veh_passenger" depart="1470.65" departLane="best" from="-44005501" to="662302258#2"/>
    <trip id="veh140" type="veh_passenger" depart="1536.50" departLane="best" departSpeed="max" from="469205306" to="714680571"/>
    <trip id="veh142" type="veh_passenger" depart="1558.45" departLane="best" departSpeed="max" from="-778380373" to="8072726"/>
    <trip id="veh149" type="veh_passenger" depart="1635.27" departLane="best" from="43981491" to="113145683"/>
    <trip id="veh152" type="veh_passenger" depart="1668.20" departLane="best" departSpeed="max" from="877619596#0" to="127240496#0"/>
    <trip id="veh153" type="veh_passenger" depart="1679.17" departLane="best" departSpeed="max" from="8900171#0" to="27497428"/>
    <trip id="veh155" type="veh_passenger" depart="1701.12" departLane="best" departSpeed="max" from="877619596#0" to="745742180"/>
    <trip id="veh160" type="veh_passenger" depart="1755.99" departLane="best" from="-113296995#0" to="8072726"/>
    <trip id="veh162" type="veh_passenger" depart="1777.94" departLane="best" departSpeed="max" from="345649138" to="351751337"/>
    <trip id="veh163" type="veh_passenger" depart="1788.92" departLane="best" departSpeed="max" from="-8080546" to="-26154324"/>
    <trip id="veh165" type="veh_passenger" depart="1810.87" departLane="best" departSpeed="max" from="-665186184" to="5930442#1"/>
    <trip id="veh167" type="veh_passenger" depart="1832.82" departLane="best" departSpeed="max" from="105771178" to="127240496#0"/>
    <trip id="veh168" type="veh_passenger" depart="1843.79" departLane="best" departSpeed="max" from="-25950341#1" to="25949687"/>
    <trip id="veh170" type="veh_passenger" depart="1865.74" departLane="best" from="113296995#1" to="127240496#0"/>
    <trip id="veh171" type="veh_passenger" depart="1876.72" departLane="best" from="-1187222413" to="29066987"/>
    <trip id="veh172" type="veh_passenger" depart="1887.69" departLane="best" from="-28151969" to="26153832#0"/>
    <trip id="veh174" type="veh_passenger" depart="1909.64" departLane="best" departSpeed="max" from="133999725#0" to="8024409#0"/>
    <trip id="veh175" type="veh_passenger" depart="1920.62" departLane="best" from="237726307" to="26565521"/>
    <trip id="veh176" type="veh_passenger" depart="1931.59" departLane="best" departSpeed="max" from="270461283" to="170511032#1"/>
    <trip id="veh178" type="veh_passenger" depart="1953.54" departLane="best" departSpeed="max" from="-29065101" to="-165778776"/>
    <trip id="veh181" type="veh_passenger" depart="1986.47" departLane="best" departSpeed="max" from="105771178" to="343157907"/>
    <trip id="veh183" type="veh_passenger" depart="2008.42" departLane="best" from="29065085" to="-1184640625"/>
    <trip id="veh186" type="veh_passenger" depart="2041.34" departLane="best" departSpeed="max" from="23148524" to="-25950723#1"/>
    <trip id="veh190" type="veh_passenger" depart="2085.24" departLane="best" departSpeed="max" from="307641760#0" to="26420644#0"/>
    <trip id="veh191" type="veh_passenger" depart="2096.22" departLane="best" from="4952878#1" to="29065101"/>
    <trip id="veh198" type="veh_passenger" depart="2173.04" departLane="best" from="30322934#5" to="-26154250"/>
    <trip id="veh199" type="veh_passenger" depart="2184.02" departLane="best" departSpeed="max" from="105771178" to="29065101"/>
    <trip id="veh200" type="veh_passenger" depart="2194.99" departLane="best" departSpeed="max" from="105771178" to="1023937354"/>
    <trip id="veh202" type="veh_passenger" depart="2216.94" departLane="best" departSpeed="max" from="26154324" to="364911324"/>
    <trip id="veh206" type="veh_passenger" depart="2260.84" departLane="best" departSpeed="max" from="105771178" to="4952863"/>
    <trip id="veh207" type="veh_passenger" depart="2271.82" departLane="best" from="25950172#1" to="30018147"/>
    <trip id="veh211" type="veh_passenger" depart="2315.72" departLane="best" departSpeed="max" from="105771178" to="4998701"/>
    <trip id="veh214" type="veh_passenger" depart="2348.64" departLane="best" from="-1247141273" to="346399778"/>
    <trip id="veh216" type="veh_passenger" depart="2370.59" departLane="best" departSpeed="max" from="868062640" to="230483955#0"/>
    <trip id="veh217" type="veh_passenger" depart="2381.57" departLane="best" departSpeed="max" from="-343878884" to="170511032#1"/>
    <trip id="veh218" type="veh_passenger" depart="2392.54" departLane="best" departSpeed="max" from="349688240" to="230483955#0"/>
    <trip id="veh219" type="veh_passenger" depart="2403.52" departLane="best" from="349488863#0" to="5930428#2"/>
    <trip id="veh222" type="veh_passenger" depart="2436.44" departLane="best" departSpeed="max" from="27220131" to="4998702#0"/>
    <trip id="veh223" type="veh_passenger" depart="2447.42" departLane="best" from="27497426" to="4952869#4"/>
    <trip id="veh225" type="veh_passenger" depart="2469.37" departLane="best" departSpeed="max" from="-25950341#1" to="351751337"/>
    <trip id="veh226" type="veh_passenger" depart="2480.34" departLane="best" departSpeed="max" from="26088764" to="1116876277"/>
    <trip id="veh227" type="veh_passenger" depart="2491.32" departLane="best" from="30322208#2" to="4997572"/>
    <trip id="veh228" type="veh_passenger" depart="2502.29" departLane="best" departSpeed="max" from="-26158696" to="30322208#0"/>
    <trip id="veh229" type="veh_passenger" depart="2513.27" departLane="best" departSpeed="max" from="345649138" to="-307641760#1"/>
    <trip id="veh230" type="veh_passenger" depart="2524.24" departLane="best" departSpeed="max" from="-25949687" to="190494839#0"/>
    <trip id="veh231" type="veh_passenger" depart="2535.22" departLane="best" departSpeed="max" from="-5930416#1" to="355120253"/>
    <trip id="veh232" type="veh_passenger" depart="2546.19" departLane="best" departSpeed="max" from="8080526#0" to="-237726307"/>
    <trip id="veh233" type="veh_passenger" depart="2557.17" departLane="best" departSpeed="max" from="307641760#0" to="-26154324"/>
    <trip id="veh238" type="veh_passenger" depart="2612.04" departLane="best" from="116758237" to="229033665#0"/>
    <trip id="veh242" type="veh_passenger" depart="2655.94" departLane="best" departSpeed="max" from="270461283" to="5930428#2"/>
    <trip id="veh244" type="veh_passenger" depart="2677.89" departLane="best" from="4998703#1" to="8080531#1"/>
    <trip id="veh245" type="veh_passenger" depart="2688.87" departLane="best" departSpeed="max" from="375939521#0" to="506998433#1"/>
    <trip id="veh252" type="veh_passenger" depart="2765.69" departLane="best" departSpeed="max" from="-9567011#1" to="-190494839#4"/>
    <trip id="veh254" type="veh_passenger" depart="2787.64" departLane="best" departSpeed="max" from="-343878884" to="4998733"/>
    <trip id="veh255" type="veh_passenger" depart="2798.62" departLane="best" departSpeed="max" from="-8072628#1" to="714680571"/>
    <trip id="veh258" type="veh_passenger" depart="2831.54" departLane="best" departSpeed="max" from="-24774407#1" to="43308573#1"/>
    <trip id="veh259" type="veh_passenger" depart="2842.52" departLane="best" from="190494839#5" to="4952878#0"/>
    <trip id="veh265" type="veh_passenger" depart="2908.37" departLane="best" departSpeed="max" from="25678136#0" to="25949687"/>
    <trip id="veh266" type="veh_passenger" depart="2919.34" departLane="best" departSpeed="max" from="345649138" to="170511032#1"/>
    <trip id="veh269" type="veh_passenger" depart="2952.27" departLane="best" from="-27368746#1" to="-345649138"/>
    <trip id="veh270" type="veh_passenger" depart="2963.24" departLane="best" departSpeed="max" from="-26565521" to="1096372366"/>
    <trip id="veh272" type="veh_passenger" depart="2985.19" departLane="best" departSpeed="max" from="8900171#0" to="27122129"/>
    <trip id="veh273" type="veh_passenger" depart="2996.17" departLane="best" departSpeed="max" from="-4952863" to="-26565479"/>
    <trip id="veh274" type="veh_passenger" depart="3007.14" departLane="best" departSpeed="max" from="-29065101" to="113145683"/>
    <trip id="veh277" type="veh_passenger" depart="3040.07" departLane="best" from="30062411" to="-345649138"/>
    <trip id="veh278" type="veh_passenger" depart="3051.04" departLane="best" from="4998714#7" to="26158696"/>
    <trip id="veh280" type="veh_passenger" depart="3072.99" departLane="best" from="1332155347" to="25950336"/>
    <trip id="veh282" type="veh_passenger" depart="3094.94" departLane="best" departSpeed="max" from="-185196004" to="343157907"/>
    <trip id="veh284" type="veh_passenger" depart="3116.89" departLane="best" departSpeed="max" from="26088764" to="1324975135"/>
    <trip id="veh288" type="veh_passenger" depart="3160.79" departLane="best" departSpeed="max" from="23148524" to="25950341#0"/>
    <trip id="veh290" type="veh_passenger" depart="3182.74" departLane="best" departSpeed="max" from="91929235#0" to="1324975164"/>
    <trip id="veh293" type="veh_passenger" depart="3215.67" departLane="best" from="29067098" to="-4997590#1"/>
    <trip id="veh308" type="veh_passenger" depart="3380.29" departLane="best" departSpeed="max" from="-24774407#1" to="8072751"/>
    <trip id="veh310" type="veh_passenger" depart="3402.24" departLane="best" departSpeed="max" from="8080526#0" to="980086104"/>
    <trip id="veh313" type="veh_passenger" depart="3435.17" departLane="best" from="1332659462" to="347015852"/>
    <trip id="veh315" type="veh_passenger" depart="3457.12" departLane="best" departSpeed="max" from="26154324" to="343878884"/>
    <trip id="veh318" type="veh_passenger" depart="3490.04" departLane="best" departSpeed="max" from="-778380373" to="355135033"/>
    <trip id="veh319" type="veh_passenger" depart="3501.02" departLane="best" departSpeed="max" from="-4998704" to="8072740#3"/>
    <trip id="veh322" type="veh_passenger" depart="3533.94" departLane="best" departSpeed="max" from="105771178" to="26565521"/>
    <trip id="veh323" type="veh_passenger" depart="3544.91" departLane="best" departSpeed="max" from="91929235#0" to="35170716"/>
    <trip id="veh325" type="veh_passenger" depart="3566.86" departLane="best" departSpeed="max" from="349688240" to="10130315"/>
</routes>
