<?xml version="1.0" encoding="UTF-8"?>

<!-- generated on 2025-02-17 17:43:43.220582 by randomTrips.py v1_21_0+2163-fe398d3a3bc
<configuration>
    <net-file value="osm.net.xml"/>
    <output-trip-file value="random_routes.rou.xml"/>
    <prefix value="veh"/>
    <trip-attributes value="type=&quot;electric_car&quot;"/>
    <fringe-factor value="10"/>
</configuration>
-->

<routes xmlns:xsi="http://www.w3.org/2001/XMLSchema-instance" xsi:noNamespaceSchemaLocation="http://sumo.dlr.de/xsd/routes_file.xsd">
    <trip id="veh0" depart="0.00" from="29251197" to="-11976502#0" type="electric_car"/>
    <trip id="veh1" depart="1.00" from="-8093463" to="-8068039#2" type="electric_car"/>
    <trip id="veh2" depart="2.00" from="4583254#0" to="36931506" type="electric_car"/>
    <trip id="veh3" depart="3.00" from="6791754" to="-219446600#0" type="electric_car"/>
    <trip id="veh4" depart="4.00" from="13430324#0" to="-1219263600" type="electric_car"/>
    <trip id="veh5" depart="5.00" from="-4997434#1" to="25498423#1" type="electric_car"/>
    <trip id="veh6" depart="6.00" from="-1212048247#1" to="-5094976#1" type="electric_car"/>
    <trip id="veh7" depart="7.00" from="30190610#1" to="268591387#0" type="electric_car"/>
    <trip id="veh8" depart="8.00" from="-4998704" to="29065101" type="electric_car"/>
    <trip id="veh9" depart="9.00" from="503176372#2" to="-1060348136" type="electric_car"/>
    <trip id="veh10" depart="10.00" from="5011890#0" to="406390894#0" type="electric_car"/>
    <trip id="veh11" depart="11.00" from="113300211#0" to="-345649138" type="electric_car"/>
    <trip id="veh12" depart="12.00" from="846310656#0" to="12829215" type="electric_car"/>
    <trip id="veh13" depart="13.00" from="-22923704" to="-24662761#1" type="electric_car"/>
    <trip id="veh14" depart="14.00" from="5841234" to="29275135#0" type="electric_car"/>
    <trip id="veh15" depart="15.00" from="5020152" to="46738173#3" type="electric_car"/>
    <trip id="veh16" depart="16.00" from="237916536#0" to="9293458#0" type="electric_car"/>
    <trip id="veh17" depart="17.00" from="126046674#0" to="270461283" type="electric_car"/>
    <trip id="veh18" depart="18.00" from="545293418" to="30103966" type="electric_car"/>
    <trip id="veh19" depart="19.00" from="5887603" to="28526365" type="electric_car"/>
    <trip id="veh20" depart="20.00" from="38148161#0" to="-1308968394" type="electric_car"/>
    <trip id="veh21" depart="21.00" from="-533387419" to="1161449701" type="electric_car"/>
    <trip id="veh22" depart="22.00" from="-190478113#1" to="-857999604" type="electric_car"/>
    <trip id="veh23" depart="23.00" from="-23985404#1" to="111604772#1" type="electric_car"/>
    <trip id="veh24" depart="24.00" from="291241344" to="138647953#0" type="electric_car"/>
    <trip id="veh25" depart="25.00" from="122605516#2" to="-5889616#1" type="electric_car"/>
    <trip id="veh26" depart="26.00" from="-8044086" to="8107225" type="electric_car"/>
    <trip id="veh27" depart="27.00" from="30082786" to="29570105" type="electric_car"/>
    <trip id="veh28" depart="28.00" from="-31474779#2" to="4585729" type="electric_car"/>
    <trip id="veh29" depart="29.00" from="-30103966" to="151607874#0" type="electric_car"/>
    <trip id="veh30" depart="30.00" from="9705097" to="31512439#4" type="electric_car"/>
    <trip id="veh31" depart="31.00" from="25510783#1" to="379614275#1" type="electric_car"/>
    <trip id="veh32" depart="32.00" from="577787561#0" to="5005252" type="electric_car"/>
    <trip id="veh33" depart="33.00" from="-538990330#2" to="-1237047635" type="electric_car"/>
    <trip id="veh34" depart="34.00" from="103273744" to="105590996" type="electric_car"/>
    <trip id="veh35" depart="35.00" from="-472381899#1" to="816748591" type="electric_car"/>
    <trip id="veh36" depart="36.00" from="5893505#0" to="122967030#0" type="electric_car"/>
    <trip id="veh37" depart="37.00" from="307641760" to="171921261#3" type="electric_car"/>
    <trip id="veh38" depart="38.00" from="8024131" to="229709614#1" type="electric_car"/>
    <trip id="veh39" depart="39.00" from="-8024485" to="-988839130" type="electric_car"/>
    <trip id="veh40" depart="40.00" from="25783831#0" to="1029057330#0" type="electric_car"/>
    <trip id="veh41" depart="41.00" from="26621214#0" to="7835453#0" type="electric_car"/>
    <trip id="veh42" depart="42.00" from="1287729983" to="-802015799" type="electric_car"/>
    <trip id="veh43" depart="43.00" from="9870098" to="25535788#0" type="electric_car"/>
    <trip id="veh44" depart="44.00" from="-219636952#0" to="-1309490376" type="electric_car"/>
    <trip id="veh45" depart="45.00" from="-25428043#0" to="30692804#1" type="electric_car"/>
    <trip id="veh46" depart="46.00" from="4998732#2" to="185196004" type="electric_car"/>
    <trip id="veh47" depart="47.00" from="-171935438" to="154246478#0" type="electric_car"/>
    <trip id="veh48" depart="48.00" from="9866343#1" to="26191651" type="electric_car"/>
    <trip id="veh49" depart="49.00" from="910567943" to="5930428#2" type="electric_car"/>
    <trip id="veh50" depart="50.00" from="-1069605423" to="4583382#0" type="electric_car"/>
    <trip id="veh51" depart="51.00" from="341759162#0" to="26565521" type="electric_car"/>
    <trip id="veh52" depart="52.00" from="-8044086" to="31513015#0" type="electric_car"/>
    <trip id="veh53" depart="53.00" from="-25521355" to="19682625" type="electric_car"/>
    <trip id="veh54" depart="54.00" from="158798819" to="846310656#1" type="electric_car"/>
    <trip id="veh55" depart="55.00" from="5893491#1" to="10362936#0" type="electric_car"/>
    <trip id="veh56" depart="56.00" from="201856399#3" to="-444241740" type="electric_car"/>
    <trip id="veh57" depart="57.00" from="79040082#0" to="655674856#6" type="electric_car"/>
    <trip id="veh58" depart="58.00" from="-977070592#1" to="31511787#1" type="electric_car"/>
    <trip id="veh59" depart="59.00" from="27633438" to="-328764040#2" type="electric_car"/>
    <trip id="veh60" depart="60.00" from="4849355#0" to="26617399" type="electric_car"/>
    <trip id="veh61" depart="61.00" from="4996492" to="26242727" type="electric_car"/>
    <trip id="veh62" depart="62.00" from="-10069377" to="12623107#0" type="electric_car"/>
    <trip id="veh63" depart="63.00" from="-1161175793" to="8080531#0" type="electric_car"/>
    <trip id="veh64" depart="64.00" from="5930434#0" to="5848369" type="electric_car"/>
    <trip id="veh65" depart="65.00" from="101266777#1" to="-147216219#2" type="electric_car"/>
    <trip id="veh66" depart="66.00" from="5930415#1" to="818423887#0" type="electric_car"/>
    <trip id="veh67" depart="67.00" from="-200962805#1" to="244105226#0" type="electric_car"/>
    <trip id="veh68" depart="68.00" from="-172413596" to="4997568" type="electric_car"/>
    <trip id="veh69" depart="69.00" from="491930219" to="-285223288" type="electric_car"/>
    <trip id="veh70" depart="70.00" from="173502220#2" to="269993590#1" type="electric_car"/>
    <trip id="veh71" depart="71.00" from="-8024485" to="663264756" type="electric_car"/>
    <trip id="veh72" depart="72.00" from="13430527" to="-62009439#1" type="electric_car"/>
    <trip id="veh73" depart="73.00" from="242151970" to="46738173#5" type="electric_car"/>
    <trip id="veh74" depart="74.00" from="-42799326" to="12262895" type="electric_car"/>
    <trip id="veh75" depart="75.00" from="9854075#0" to="324276033" type="electric_car"/>
    <trip id="veh76" depart="76.00" from="148101955#0" to="25949687" type="electric_car"/>
    <trip id="veh77" depart="77.00" from="-25950341" to="-8113590#2" type="electric_car"/>
    <trip id="veh78" depart="78.00" from="1128049584" to="29048926" type="electric_car"/>
    <trip id="veh79" depart="79.00" from="-545286581#1" to="-802015799" type="electric_car"/>
    <trip id="veh80" depart="80.00" from="-175207089#2" to="31261119" type="electric_car"/>
    <trip id="veh81" depart="81.00" from="-538106039#0" to="8024338" type="electric_car"/>
    <trip id="veh82" depart="82.00" from="5848412" to="-181606924#1" type="electric_car"/>
    <trip id="veh83" depart="83.00" from="-5838255" to="355829948#2" type="electric_car"/>
    <trip id="veh84" depart="84.00" from="-4849327#1" to="-29068613" type="electric_car"/>
    <trip id="veh85" depart="85.00" from="8079158" to="28171635" type="electric_car"/>
    <trip id="veh86" depart="86.00" from="172375194#0" to="502906884" type="electric_car"/>
    <trip id="veh87" depart="87.00" from="5020171#0" to="-4996482#3" type="electric_car"/>
    <trip id="veh88" depart="88.00" from="-23312414" to="195213158#0" type="electric_car"/>
    <trip id="veh89" depart="89.00" from="13432476" to="233609818" type="electric_car"/>
    <trip id="veh90" depart="90.00" from="442912312" to="364219311#2" type="electric_car"/>
    <trip id="veh91" depart="91.00" from="9654387#0" to="-25453272" type="electric_car"/>
    <trip id="veh92" depart="92.00" from="12982334#0" to="12987041#0" type="electric_car"/>
    <trip id="veh93" depart="93.00" from="5887603" to="100104394" type="electric_car"/>
    <trip id="veh94" depart="94.00" from="-37412296#0" to="220068953#1" type="electric_car"/>
    <trip id="veh95" depart="95.00" from="13430324#0" to="1119479705" type="electric_car"/>
    <trip id="veh96" depart="96.00" from="-5930419" to="8053395#1" type="electric_car"/>
    <trip id="veh97" depart="97.00" from="153333006" to="5930428#2" type="electric_car"/>
    <trip id="veh98" depart="98.00" from="247977997#0" to="-1324697376" type="electric_car"/>
    <trip id="veh99" depart="99.00" from="992066312#0" to="5848413" type="electric_car"/>
    <trip id="veh100" depart="100.00" from="905179229" to="8072631" type="electric_car"/>
    <trip id="veh101" depart="101.00" from="5841245#1" to="-38176761" type="electric_car"/>
    <trip id="veh102" depart="102.00" from="190496602#0" to="-659325368#1" type="electric_car"/>
    <trip id="veh103" depart="103.00" from="129240201" to="-148332763#1" type="electric_car"/>
    <trip id="veh104" depart="104.00" from="12618067" to="9702471" type="electric_car"/>
    <trip id="veh105" depart="105.00" from="-8024485" to="502906884" type="electric_car"/>
    <trip id="veh106" depart="106.00" from="158798821" to="185242442" type="electric_car"/>
    <trip id="veh107" depart="107.00" from="846310656#0" to="9866200" type="electric_car"/>
    <trip id="veh108" depart="108.00" from="25453272" to="4579961" type="electric_car"/>
    <trip id="veh109" depart="109.00" from="-29076615#4" to="117702985" type="electric_car"/>
    <trip id="veh110" depart="110.00" from="905179224#0" to="28693078" type="electric_car"/>
    <trip id="veh111" depart="111.00" from="244936582#2" to="4931323" type="electric_car"/>
    <trip id="veh112" depart="112.00" from="-155205083#1" to="28989535" type="electric_car"/>
    <trip id="veh113" depart="113.00" from="206648074#0" to="5893451" type="electric_car"/>
    <trip id="veh114" depart="114.00" from="-29303490" to="883038144" type="electric_car"/>
    <trip id="veh115" depart="115.00" from="-190478113#1" to="-4931328#0" type="electric_car"/>
    <trip id="veh116" depart="116.00" from="26956224#0" to="365707698#0" type="electric_car"/>
    <trip id="veh117" depart="117.00" from="-5732805" to="-269973288" type="electric_car"/>
    <trip id="veh118" depart="118.00" from="671154398" to="-9870098" type="electric_car"/>
    <trip id="veh119" depart="119.00" from="269389349#0" to="30103991" type="electric_car"/>
    <trip id="veh120" depart="120.00" from="1339227687#2" to="28975208" type="electric_car"/>
    <trip id="veh121" depart="121.00" from="23199403#1" to="8096080" type="electric_car"/>
    <trip id="veh122" depart="122.00" from="-43854267" to="4469959#9" type="electric_car"/>
    <trip id="veh123" depart="123.00" from="-5838255" to="171921262" type="electric_car"/>
    <trip id="veh124" depart="124.00" from="31637479#0" to="1198882914" type="electric_car"/>
    <trip id="veh125" depart="125.00" from="103802758#0" to="4952878#0" type="electric_car"/>
    <trip id="veh126" depart="126.00" from="-176336103#1" to="22923803" type="electric_car"/>
    <trip id="veh127" depart="127.00" from="990543582#3" to="9866343#1" type="electric_car"/>
    <trip id="veh128" depart="128.00" from="-176620226" to="-655674856#10" type="electric_car"/>
    <trip id="veh129" depart="129.00" from="-8024485" to="8093450#0" type="electric_car"/>
    <trip id="veh130" depart="130.00" from="605745357#0" to="689493209#4" type="electric_car"/>
    <trip id="veh131" depart="131.00" from="1221983140" to="-35284028" type="electric_car"/>
    <trip id="veh132" depart="132.00" from="553193745#0" to="420290639" type="electric_car"/>
    <trip id="veh133" depart="133.00" from="28007162#2" to="9717217" type="electric_car"/>
    <trip id="veh134" depart="134.00" from="305352441" to="-106835614#3" type="electric_car"/>
    <trip id="veh135" depart="135.00" from="5142589#0" to="11976502#0" type="electric_car"/>
    <trip id="veh136" depart="136.00" from="31340736" to="813356903" type="electric_car"/>
    <trip id="veh137" depart="137.00" from="-26570456" to="-26570638" type="electric_car"/>
    <trip id="veh138" depart="138.00" from="-251428133" to="271227046#0" type="electric_car"/>
    <trip id="veh139" depart="139.00" from="-8072657" to="29282751" type="electric_car"/>
    <trip id="veh140" depart="140.00" from="406390894#1" to="-56653141" type="electric_car"/>
    <trip id="veh141" depart="141.00" from="29076749#0" to="1038846824#1" type="electric_car"/>
    <trip id="veh142" depart="142.00" from="192640524" to="8024338" type="electric_car"/>
    <trip id="veh143" depart="143.00" from="5838270#1" to="-233609122#3" type="electric_car"/>
    <trip id="veh144" depart="144.00" from="13432476" to="1104158312#0" type="electric_car"/>
    <trip id="veh145" depart="145.00" from="-1017565107" to="5001005" type="electric_car"/>
    <trip id="veh146" depart="146.00" from="29234612" to="10276039" type="electric_car"/>
    <trip id="veh147" depart="147.00" from="4583585#3" to="270077854" type="electric_car"/>
    <trip id="veh148" depart="148.00" from="138782641" to="-1104591416" type="electric_car"/>
    <trip id="veh149" depart="149.00" from="-179638536" to="694681348#1" type="electric_car"/>
    <trip id="veh150" depart="150.00" from="736945518#0" to="26930679" type="electric_car"/>
    <trip id="veh151" depart="151.00" from="554341214#0" to="28890734#1" type="electric_car"/>
    <trip id="veh152" depart="152.00" from="-28766892" to="-28166124#0" type="electric_car"/>
    <trip id="veh153" depart="153.00" from="10128089" to="7837746#0" type="electric_car"/>
    <trip id="veh154" depart="154.00" from="5003727#5" to="5930428#2" type="electric_car"/>
    <trip id="veh155" depart="155.00" from="694681348#0" to="-5889616#1" type="electric_car"/>
    <trip id="veh156" depart="156.00" from="-5930416#1" to="-26125318" type="electric_car"/>
    <trip id="veh157" depart="157.00" from="4996524#0" to="694697052" type="electric_car"/>
    <trip id="veh158" depart="158.00" from="1307487497" to="301978231#0" type="electric_car"/>
    <trip id="veh159" depart="159.00" from="-29076615#4" to="8080546" type="electric_car"/>
    <trip id="veh160" depart="160.00" from="5889557" to="945831227" type="electric_car"/>
    <trip id="veh161" depart="161.00" from="5043397" to="690828250#0" type="electric_car"/>
    <trip id="veh162" depart="162.00" from="-120521531#1" to="4788786#0" type="electric_car"/>
    <trip id="veh163" depart="163.00" from="1100930409#0" to="8080552#3" type="electric_car"/>
    <trip id="veh164" depart="164.00" from="5010662#1" to="60640438" type="electric_car"/>
    <trip id="veh165" depart="165.00" from="5043397" to="104787738" type="electric_car"/>
    <trip id="veh166" depart="166.00" from="4997678#2" to="-26242735#0" type="electric_car"/>
    <trip id="veh167" depart="167.00" from="5891899#0" to="5930415#1" type="electric_car"/>
    <trip id="veh168" depart="168.00" from="-5005250" to="577162299" type="electric_car"/>
    <trip id="veh169" depart="169.00" from="164578773#0" to="1212031564" type="electric_car"/>
    <trip id="veh170" depart="170.00" from="5003724" to="-81813057#4" type="electric_car"/>
    <trip id="veh171" depart="171.00" from="-11976336#1" to="-4998697#0" type="electric_car"/>
    <trip id="veh172" depart="172.00" from="1091275456" to="60640438" type="electric_car"/>
    <trip id="veh173" depart="173.00" from="8901329" to="1122299069#1" type="electric_car"/>
    <trip id="veh174" depart="174.00" from="29275407#1" to="171978226" type="electric_car"/>
    <trip id="veh175" depart="175.00" from="96058967#3" to="26565521" type="electric_car"/>
    <trip id="veh176" depart="176.00" from="8093450#1" to="-26570638" type="electric_car"/>
    <trip id="veh177" depart="177.00" from="909507672#0" to="-444241740" type="electric_car"/>
    <trip id="veh178" depart="178.00" from="8735435" to="1044566799#0" type="electric_car"/>
    <trip id="veh179" depart="179.00" from="-25344092" to="19682625" type="electric_car"/>
    <trip id="veh180" depart="180.00" from="442721613" to="12265259#0" type="electric_car"/>
    <trip id="veh181" depart="181.00" from="27541033#0" to="25641787#0" type="electric_car"/>
    <trip id="veh182" depart="182.00" from="1267149550#1" to="28526365" type="electric_car"/>
    <trip id="veh183" depart="183.00" from="-688925083#1" to="43761581" type="electric_car"/>
    <trip id="veh184" depart="184.00" from="-10107368" to="8072628" type="electric_car"/>
    <trip id="veh185" depart="185.00" from="240294969#3" to="4583254#0" type="electric_car"/>
    <trip id="veh186" depart="186.00" from="4583618#0" to="35985257" type="electric_car"/>
    <trip id="veh187" depart="187.00" from="1212048248#0" to="-176620249" type="electric_car"/>
    <trip id="veh188" depart="188.00" from="31400524#0" to="127240498#1" type="electric_car"/>
    <trip id="veh189" depart="189.00" from="102949846" to="5891887" type="electric_car"/>
    <trip id="veh190" depart="190.00" from="41711852#0" to="1199165409" type="electric_car"/>
    <trip id="veh191" depart="191.00" from="10144034" to="172939040" type="electric_car"/>
    <trip id="veh192" depart="192.00" from="129335004" to="1168959923" type="electric_car"/>
    <trip id="veh193" depart="193.00" from="-26158600" to="185062799" type="electric_car"/>
    <trip id="veh194" depart="194.00" from="8096076#0" to="37192541" type="electric_car"/>
    <trip id="veh195" depart="195.00" from="73212108#0" to="30062345" type="electric_car"/>
    <trip id="veh196" depart="196.00" from="-992066312#2" to="26985886" type="electric_car"/>
    <trip id="veh197" depart="197.00" from="-10069377" to="1160732467#0" type="electric_car"/>
    <trip id="veh198" depart="198.00" from="140400523#2" to="287544803" type="electric_car"/>
    <trip id="veh199" depart="199.00" from="30692804#0" to="23312414" type="electric_car"/>
    <trip id="veh200" depart="200.00" from="151607874#0" to="-659325368#0" type="electric_car"/>
    <trip id="veh201" depart="201.00" from="172398663#2" to="802015799" type="electric_car"/>
    <trip id="veh202" depart="202.00" from="5003727#4" to="-399455501#2" type="electric_car"/>
    <trip id="veh203" depart="203.00" from="-200823730" to="25783834#0" type="electric_car"/>
    <trip id="veh204" depart="204.00" from="29076010#0" to="12827904" type="electric_car"/>
    <trip id="veh205" depart="205.00" from="517042718" to="4952863" type="electric_car"/>
    <trip id="veh206" depart="206.00" from="317851643" to="-8113590#2" type="electric_car"/>
    <trip id="veh207" depart="207.00" from="-416223401#1" to="-1191367041" type="electric_car"/>
    <trip id="veh208" depart="208.00" from="-5891895#0" to="237194286" type="electric_car"/>
    <trip id="veh209" depart="209.00" from="5841265" to="-182562252" type="electric_car"/>
    <trip id="veh210" depart="210.00" from="1324697369#0" to="311974401#0" type="electric_car"/>
    <trip id="veh211" depart="211.00" from="-38148842#0" to="393367787#2" type="electric_car"/>
    <trip id="veh212" depart="212.00" from="19680047" to="-9702468#4" type="electric_car"/>
    <trip id="veh213" depart="213.00" from="307641760" to="-1038846824#1" type="electric_car"/>
    <trip id="veh214" depart="214.00" from="46985837" to="5000240" type="electric_car"/>
    <trip id="veh215" depart="215.00" from="-24940035" to="188697285#0" type="electric_car"/>
    <trip id="veh216" depart="216.00" from="-33180762" to="8677651#1" type="electric_car"/>
    <trip id="veh217" depart="217.00" from="230381516#0" to="-1324697373" type="electric_car"/>
    <trip id="veh218" depart="218.00" from="-5893497" to="5891895#1" type="electric_car"/>
    <trip id="veh219" depart="219.00" from="158798822" to="540016644#0" type="electric_car"/>
    <trip id="veh220" depart="220.00" from="31512439#0" to="9717413" type="electric_car"/>
    <trip id="veh221" depart="221.00" from="26956224#3" to="826057677" type="electric_car"/>
    <trip id="veh222" depart="222.00" from="675160078" to="298784841#0" type="electric_car"/>
    <trip id="veh223" depart="223.00" from="416224154" to="25453272" type="electric_car"/>
    <trip id="veh224" depart="224.00" from="548581983" to="26985884" type="electric_car"/>
    <trip id="veh225" depart="225.00" from="689694715" to="4849360" type="electric_car"/>
    <trip id="veh226" depart="226.00" from="172986927" to="10145670" type="electric_car"/>
    <trip id="veh227" depart="227.00" from="-5893451" to="31474779#0" type="electric_car"/>
    <trip id="veh228" depart="228.00" from="491930219" to="25950341" type="electric_car"/>
    <trip id="veh229" depart="229.00" from="29065909#0" to="1082150681" type="electric_car"/>
    <trip id="veh230" depart="230.00" from="-185196004" to="1151595118" type="electric_car"/>
    <trip id="veh231" depart="231.00" from="-8072641" to="1244551865" type="electric_car"/>
    <trip id="veh232" depart="232.00" from="243315940#3" to="-29274200" type="electric_car"/>
    <trip id="veh233" depart="233.00" from="-545297705" to="38614869#2" type="electric_car"/>
    <trip id="veh234" depart="234.00" from="38176728#0" to="-161338597#3" type="electric_car"/>
    <trip id="veh235" depart="235.00" from="1308968394" to="26738909#0" type="electric_car"/>
    <trip id="veh236" depart="236.00" from="1324975135" to="-5841270#0" type="electric_car"/>
    <trip id="veh237" depart="237.00" from="1339579460" to="8024253" type="electric_car"/>
    <trip id="veh238" depart="238.00" from="26609861" to="39234161#1" type="electric_car"/>
    <trip id="veh239" depart="239.00" from="5848385#2" to="4998691#0" type="electric_car"/>
    <trip id="veh240" depart="240.00" from="12621451" to="-1044566799#1" type="electric_car"/>
    <trip id="veh241" depart="241.00" from="1173088916" to="4986564" type="electric_car"/>
    <trip id="veh242" depart="242.00" from="5843713" to="84346597" type="electric_car"/>
    <trip id="veh243" depart="243.00" from="1339227687#0" to="485597093#1" type="electric_car"/>
    <trip id="veh244" depart="244.00" from="24522421" to="29251077#0" type="electric_car"/>
    <trip id="veh245" depart="245.00" from="-4998704" to="-802015799" type="electric_car"/>
    <trip id="veh246" depart="246.00" from="146985785#0" to="-1217434562" type="electric_car"/>
    <trip id="veh247" depart="247.00" from="1120601772" to="37519304#0" type="electric_car"/>
    <trip id="veh248" depart="248.00" from="12987183" to="-38148828#1" type="electric_car"/>
    <trip id="veh249" depart="249.00" from="172040988#0" to="-28166125" type="electric_car"/>
    <trip id="veh250" depart="250.00" from="28975208" to="-1213576608#1" type="electric_car"/>
    <trip id="veh251" depart="251.00" from="128272253" to="28079386#0" type="electric_car"/>
    <trip id="veh252" depart="252.00" from="-1215652566#2" to="31642811#1" type="electric_car"/>
    <trip id="veh253" depart="253.00" from="-269993590#1" to="230626525" type="electric_car"/>
    <trip id="veh254" depart="254.00" from="-1357097518" to="150133452#2" type="electric_car"/>
    <trip id="veh255" depart="255.00" from="-4788790" to="1267149559#2" type="electric_car"/>
    <trip id="veh256" depart="256.00" from="482008862" to="150133452#2" type="electric_car"/>
    <trip id="veh257" depart="257.00" from="47194523" to="5848369" type="electric_car"/>
    <trip id="veh258" depart="258.00" from="-636416860#1" to="-19682488" type="electric_car"/>
    <trip id="veh259" depart="259.00" from="-1161175793" to="26617399" type="electric_car"/>
    <trip id="veh260" depart="260.00" from="996491375" to="1320671232#2" type="electric_car"/>
    <trip id="veh261" depart="261.00" from="301978228#1" to="5010784" type="electric_car"/>
    <trip id="veh262" depart="262.00" from="30285687#0" to="4986580#2" type="electric_car"/>
    <trip id="veh263" depart="263.00" from="81813056#0" to="-52250119#1" type="electric_car"/>
    <trip id="veh264" depart="264.00" from="-1165605996" to="-328674182" type="electric_car"/>
    <trip id="veh265" depart="265.00" from="-26154383" to="355985162#2" type="electric_car"/>
    <trip id="veh266" depart="266.00" from="25950723" to="-746070675" type="electric_car"/>
    <trip id="veh267" depart="267.00" from="36931506" to="4998703#1" type="electric_car"/>
    <trip id="veh268" depart="268.00" from="-31129303#3" to="29493672" type="electric_car"/>
    <trip id="veh269" depart="269.00" from="46738173#4" to="-26570638" type="electric_car"/>
    <trip id="veh270" depart="270.00" from="52296261#0" to="893038809#0" type="electric_car"/>
    <trip id="veh271" depart="271.00" from="-251669260" to="-1206701162" type="electric_car"/>
    <trip id="veh272" depart="272.00" from="102470909#0" to="37192541" type="electric_car"/>
    <trip id="veh273" depart="273.00" from="848949315" to="171935435" type="electric_car"/>
    <trip id="veh274" depart="274.00" from="39839584" to="-191545768#1" type="electric_car"/>
    <trip id="veh275" depart="275.00" from="354850554#1" to="30692804#0" type="electric_car"/>
    <trip id="veh276" depart="276.00" from="-243315941#1" to="5003727#0" type="electric_car"/>
    <trip id="veh277" depart="277.00" from="5841272" to="29107347" type="electric_car"/>
    <trip id="veh278" depart="278.00" from="-25950341" to="9702430#0" type="electric_car"/>
    <trip id="veh279" depart="279.00" from="4997426" to="1313731498" type="electric_car"/>
    <trip id="veh280" depart="280.00" from="139118446#0" to="146982057" type="electric_car"/>
    <trip id="veh281" depart="281.00" from="214792843" to="1307279751" type="electric_car"/>
    <trip id="veh282" depart="282.00" from="5841260" to="5841241" type="electric_car"/>
    <trip id="veh283" depart="283.00" from="-24867726" to="883038144" type="electric_car"/>
    <trip id="veh284" depart="284.00" from="29107347" to="5843731" type="electric_car"/>
    <trip id="veh285" depart="285.00" from="38176761" to="199204972#2" type="electric_car"/>
    <trip id="veh286" depart="286.00" from="4469959#0" to="899607574" type="electric_car"/>
    <trip id="veh287" depart="287.00" from="-8053380" to="554341212#0" type="electric_car"/>
    <trip id="veh288" depart="288.00" from="23985404#0" to="242052007" type="electric_car"/>
    <trip id="veh289" depart="289.00" from="146985781#0" to="4681923#1" type="electric_car"/>
    <trip id="veh290" depart="290.00" from="-8052773" to="5893410#1" type="electric_car"/>
    <trip id="veh291" depart="291.00" from="548581983" to="-219442433#0" type="electric_car"/>
    <trip id="veh292" depart="292.00" from="6122435#5" to="-9702468#3" type="electric_car"/>
    <trip id="veh293" depart="293.00" from="171921261#3" to="29710367" type="electric_car"/>
    <trip id="veh294" depart="294.00" from="12618067" to="-1217434562" type="electric_car"/>
    <trip id="veh295" depart="295.00" from="5841291#0" to="-4688445" type="electric_car"/>
    <trip id="veh296" depart="296.00" from="-4788790" to="538022094#0" type="electric_car"/>
    <trip id="veh297" depart="297.00" from="113300211#0" to="689694716" type="electric_car"/>
    <trip id="veh298" depart="298.00" from="37519305#2" to="1098076810" type="electric_car"/>
    <trip id="veh299" depart="299.00" from="-106806622" to="820180192#0" type="electric_car"/>
    <trip id="veh300" depart="300.00" from="-200962805#1" to="4583332#3" type="electric_car"/>
    <trip id="veh301" depart="301.00" from="192640524" to="4996525" type="electric_car"/>
    <trip id="veh302" depart="302.00" from="354850554#1" to="317902510#0" type="electric_car"/>
    <trip id="veh303" depart="303.00" from="192653298#0" to="53378164#0" type="electric_car"/>
    <trip id="veh304" depart="304.00" from="-22923704" to="-8041183#3" type="electric_car"/>
    <trip id="veh305" depart="305.00" from="355829948#2" to="1212048244" type="electric_car"/>
    <trip id="veh306" depart="306.00" from="26565617" to="23584736" type="electric_car"/>
    <trip id="veh307" depart="307.00" from="23711936#0" to="189151788#1" type="electric_car"/>
    <trip id="veh308" depart="308.00" from="461149504" to="1273089807" type="electric_car"/>
    <trip id="veh309" depart="309.00" from="37700408#1" to="1069605423" type="electric_car"/>
    <trip id="veh310" depart="310.00" from="-596810122#2" to="-27188687" type="electric_car"/>
    <trip id="veh311" depart="311.00" from="-379614274" to="-26827419" type="electric_car"/>
    <trip id="veh312" depart="312.00" from="237844088" to="4997665#0" type="electric_car"/>
    <trip id="veh313" depart="313.00" from="-34748300" to="-689626974#1" type="electric_car"/>
    <trip id="veh314" depart="314.00" from="188148465#0" to="4583595#3" type="electric_car"/>
    <trip id="veh315" depart="315.00" from="9416721#2" to="26154343" type="electric_car"/>
    <trip id="veh316" depart="316.00" from="-83649744" to="-25783831#1" type="electric_car"/>
    <trip id="veh317" depart="317.00" from="-38148466#3" to="-81813057#3" type="electric_car"/>
    <trip id="veh318" depart="318.00" from="-343878884" to="-11384853" type="electric_car"/>